@<TRIPOS>MOLECULE
MOL
  195   189     1     0     0
SMALL
resp


@<TRIPOS>ATOM
      1 C1          4.4950   -2.6010   -3.9000 c3        1 MOL     -0.475670
      2 C2          3.7890   -2.4220   -2.5240 c         1 MOL      0.865173
      3 O1          3.0470   -1.4800   -2.3630 o         1 MOL     -0.551929
      4 H1          3.7990   -3.0450   -4.6110 hc        1 MOL      0.110766
      5 H2          4.8210   -1.6290   -4.2700 hc        1 MOL      0.110766
      6 H3          5.3600   -3.2540   -3.7830 hc        1 MOL      0.110766
      7 N1          4.0520   -3.3490   -1.6150 n         1 MOL     -0.843338
      8 C3          3.5670   -3.4150   -0.1970 c3        1 MOL      0.203583
      9 C4          2.0050   -3.2490   -0.0260 c         1 MOL      0.468119
     10 O2          1.4660   -2.3110    0.5080 o         1 MOL     -0.502433
     11 C5          4.2750   -2.3530    0.7300 c3        1 MOL     -0.178217
     12 C6          5.8220   -2.4970    0.6800 c         1 MOL      0.509471
     13 O3          6.4590   -3.1280    1.5810 o         1 MOL     -0.677422
     14 O4          6.5290   -1.9300   -0.2080 o         1 MOL     -0.677422
     15 H4          4.3940   -4.2350   -1.9420 hn        1 MOL      0.368132
     16 H5          3.9310   -4.3110    0.2970 h1        1 MOL      0.054102
     17 H6          3.9930   -2.5260    1.7720 hc        1 MOL      0.108544
     18 H7          4.0410   -1.3190    0.4890 hc        1 MOL      0.108544
     19 N2          1.2570   -4.2490   -0.5950 n         1 MOL     -0.482946
     20 C7         -0.2050   -4.2340   -0.9100 c3        1 MOL      0.237908
     21 C8         -0.8980   -5.4490   -0.2780 c         1 MOL      0.415378
     22 O5         -0.2660   -6.4510    0.1030 o         1 MOL     -0.561481
     23 C9         -0.3920   -4.3900   -2.5280 c3        1 MOL      0.127898
     24 C10         0.6020   -5.4300   -3.0950 c3        1 MOL      0.162653
     25 C11        -0.3100   -3.0600   -3.2120 c3        1 MOL     -0.430968
     26 C12         0.0680   -5.9750   -4.4530 c3        1 MOL     -0.468479
     27 H8          1.6930   -5.1150   -0.8640 hn        1 MOL      0.207560
     28 H9         -0.7250   -3.3780   -0.5010 h1        1 MOL      0.027431
     29 H10        -1.4140   -4.7730   -2.5370 hc        1 MOL      0.068257
     30 H11         0.6810   -6.2710   -2.4140 hc        1 MOL     -0.005939
     31 H12         1.6080   -5.0300   -3.2270 hc        1 MOL     -0.005939
     32 H13         0.6610   -2.6370   -2.9380 hc        1 MOL      0.119949
     33 H14        -0.2970   -3.2320   -4.2850 hc        1 MOL      0.119949
     34 H15        -1.1510   -2.4380   -2.8980 hc        1 MOL      0.119949
     35 H16         0.3240   -7.0230   -4.6230 hc        1 MOL      0.106559
     36 H17        -1.0090   -5.9960   -4.3000 hc        1 MOL      0.106559
     37 H18         0.3090   -5.2990   -5.2730 hc        1 MOL      0.106559
     38 N3         -2.2590   -5.5080   -0.0890 n         1 MOL     -0.380819
     39 C13        -3.2110   -4.4180   -0.3380 c3        1 MOL     -0.332134
     40 C14        -3.8450   -3.7960    0.9220 c         1 MOL      0.687431
     41 O6         -4.6420   -2.8300    0.8750 o         1 MOL     -0.519511
     42 C15        -4.2040   -4.8240   -1.4390 c3        1 MOL     -0.014014
     43 C16        -4.7210   -6.2370   -1.5070 c         1 MOL      0.743728
     44 O7         -5.4180   -6.5220   -2.4870 o         1 MOL     -0.727925
     45 O8         -4.4110   -7.0940   -0.6070 o         1 MOL     -0.727925
     46 H19        -2.6300   -6.3780    0.2510 hn        1 MOL      0.302780
     47 H20        -2.6410   -3.5500   -0.7050 h1        1 MOL      0.113570
     48 H21        -3.6450   -4.6460   -2.3650 hc        1 MOL     -0.002022
     49 H22        -5.0720   -4.1750   -1.3440 hc        1 MOL     -0.002022
     50 N4         -3.4730   -4.2030    2.1700 n         1 MOL     -0.421165
     51 C17        -3.7760   -3.5500    3.4490 c3        1 MOL     -0.112773
     52 C18        -5.2630   -3.2040    3.7390 c         1 MOL      0.528427
     53 O9         -6.1790   -4.0170    3.8880 o         1 MOL     -0.568609
     54 H23        -2.8520   -5.0030    2.2710 hn        1 MOL      0.296797
     55 H24        -3.1680   -2.6400    3.4710 h1        1 MOL      0.091233
     56 H25        -3.3520   -4.1850    4.2270 h1        1 MOL      0.091233
     57 N5         -5.5320   -1.9210    3.8750 n         1 MOL     -0.487791
     58 C19        -6.9250   -1.3360    3.9300 c3        1 MOL      0.272697
     59 C20        -7.7450   -1.4870    2.6610 c         1 MOL      0.323619
     60 O10        -8.9090   -1.2170    2.6450 o         1 MOL     -0.547304
     61 C21        -6.8300    0.1710    4.2700 c3        1 MOL     -0.398402
     62 C22        -5.5470    0.8270    3.8230 c         1 MOL      0.783963
     63 O11        -4.5620    0.7840    4.6100 o         1 MOL     -0.717824
     64 O12        -5.4580    1.2450    2.6410 o         1 MOL     -0.717824
     65 H26        -4.7560   -1.2770    3.9420 hn        1 MOL      0.284944
     66 H27        -7.5730   -1.7560    4.7020 h1        1 MOL      0.036204
     67 H28        -6.9370    0.3370    5.3420 hc        1 MOL      0.067049
     68 H29        -7.6060    0.6680    3.6910 hc        1 MOL      0.067049
     69 N6         -7.0430   -1.7960    1.5810 n         1 MOL     -0.018583
     70 C23        -7.6560   -1.6610    0.2350 c3        1 MOL     -0.338545
     71 C24        -7.7960   -0.3260   -0.4490 c         1 MOL      0.546257
     72 O13        -8.1790   -0.3140   -1.6420 o         1 MOL     -0.593740
     73 H30        -6.1020   -2.1590    1.6110 hn        1 MOL      0.167898
     74 H31        -8.6260   -2.1340    0.3400 h1        1 MOL      0.141388
     75 H32        -7.0660   -2.2630   -0.4660 h1        1 MOL      0.141388
     76 N7         -7.3900    0.7410    0.2000 n         1 MOL     -0.218368
     77 C25        -7.7060    2.1500   -0.1540 c3        1 MOL     -0.036706
     78 C26        -7.0810    2.7410   -1.3830 c         1 MOL      0.466562
     79 O14        -7.1490    3.9490   -1.5330 o         1 MOL     -0.542827
     80 C27        -9.2300    2.4590   -0.1480 c3        1 MOL     -0.206374
     81 C28        -9.9630    1.8130    1.1010 c3        1 MOL     -0.048165
     82 C29       -11.4560    2.1610    1.2200 c         1 MOL      0.565622
     83 N8        -12.1520    1.4830    2.1120 n         1 MOL     -0.753515
     84 O15       -12.0420    2.9920    0.5130 o         1 MOL     -0.573465
     85 H33        -6.8150    0.6020    1.0100 hn        1 MOL      0.176226
     86 H34        -7.2710    2.7070    0.6790 h1        1 MOL      0.130805
     87 H35        -9.7090    2.1110   -1.0730 hc        1 MOL      0.092991
     88 H36        -9.3300    3.5390   -0.0880 hc        1 MOL      0.092991
     89 H37        -9.4390    1.9440    2.0520 hc        1 MOL      0.064388
     90 H38        -9.9550    0.7280    1.0570 hc        1 MOL      0.064388
     91 H39       -11.7590    0.8980    2.8390 hn        1 MOL      0.340892
     92 H40       -13.1250    1.7360    2.0960 hn        1 MOL      0.340892
     93 N9         -6.4650    1.9890   -2.2350 n         1 MOL     -0.283455
     94 C30        -5.6390    2.6350   -3.3180 c3        1 MOL      0.020747
     95 C31        -4.1690    2.9530   -2.9770 c         1 MOL      0.566527
     96 O16        -3.6980    4.0100   -3.3620 o         1 MOL     -0.534792
     97 C32        -5.5880    1.6770   -4.6010 c3        1 MOL      0.296588
     98 C33        -7.0730    1.4100   -5.0480 c3        1 MOL     -0.297555
     99 C34        -4.8930    2.3740   -5.8010 c3        1 MOL     -0.297555
    100 H41        -6.3370    1.0040   -2.0660 hn        1 MOL      0.232372
    101 H42        -5.9930    3.5820   -3.7150 h1        1 MOL      0.059646
    102 H43        -5.0390    0.7510   -4.4210 hc        1 MOL     -0.025660
    103 H44        -7.0220    0.8410   -5.9780 hc        1 MOL      0.057802
    104 H45        -7.5310    0.8880   -4.2040 hc        1 MOL      0.057802
    105 H46        -7.6070    2.3410   -5.2350 hc        1 MOL      0.057802
    106 H47        -4.9820    1.7820   -6.7240 hc        1 MOL      0.057802
    107 H48        -5.3790    3.3320   -5.9860 hc        1 MOL      0.057802
    108 H49        -3.8500    2.6560   -5.6790 hc        1 MOL      0.057802
    109 N10        -3.5520    2.0500   -2.1970 n         1 MOL     -0.491711
    110 C35        -2.1460    1.9000   -1.9380 c3        1 MOL      0.156518
    111 C36        -1.7550    2.5350   -0.5720 c         1 MOL      0.686169
    112 O17        -2.5970    3.0460    0.1280 o         1 MOL     -0.507456
    113 C37        -1.9080    0.4170   -2.1230 c3        1 MOL     -0.127927
    114 C38        -0.4250    0.2630   -2.3170 c         1 MOL      0.523515
    115 N11         0.3030   -0.2740   -1.3700 n         1 MOL     -0.665402
    116 O18         0.0640    0.5330   -3.4140 o         1 MOL     -0.570318
    117 H50        -4.1010    1.3980   -1.6650 hn        1 MOL      0.230986
    118 H51        -1.6060    2.4790   -2.6870 h1        1 MOL      0.044850
    119 H52        -2.5500    0.0210   -2.9110 hc        1 MOL      0.035654
    120 H53        -2.1180   -0.0570   -1.1660 hc        1 MOL      0.035654
    121 H54        -0.1320   -0.7890   -0.6180 hn        1 MOL      0.354088
    122 H55         1.2810   -0.4340   -1.5730 hn        1 MOL      0.354088
    123 N12        -0.4270    2.5660   -0.4070 n         1 MOL     -0.759614
    124 C39         0.2950    3.0800    0.7650 c3        1 MOL      0.183295
    125 C40         1.6970    3.3700    0.2430 c         1 MOL      0.388957
    126 O19         2.3480    2.4710   -0.3260 o         1 MOL     -0.511289
    127 C41         0.2650    1.9360    1.7850 c3        1 MOL     -0.076173
    128 C42         1.4120    2.1810    2.8230 ca        1 MOL     -0.074793
    129 C43         2.5690    1.3900    2.7650 ca        1 MOL     -0.052350
    130 C44         1.3440    3.2590    3.7260 ca        1 MOL     -0.052350
    131 C45         3.7010    1.5990    3.5930 ca        1 MOL     -0.348364
    132 C46         2.4060    3.4750    4.6540 ca        1 MOL     -0.348364
    133 C47         3.6100    2.6560    4.5300 ca        1 MOL      0.358933
    134 O20         4.6580    2.8720    5.3720 oh        1 MOL     -0.517899
    135 H56         0.1710    2.0720   -1.0550 hn        1 MOL      0.379611
    136 H57        -0.2220    3.9460    1.1840 h1        1 MOL      0.077848
    137 H58         0.2770    0.8900    1.4530 hc        1 MOL      0.069710
    138 H59        -0.7220    2.0120    2.2310 hc        1 MOL      0.069710
    139 H60         2.5780    0.5220    2.1130 ha        1 MOL      0.099621
    140 H61         0.4740    3.8920    3.7470 ha        1 MOL      0.099621
    141 H62         4.6000    0.9890    3.6120 ha        1 MOL      0.181740
    142 H63         2.3610    4.2550    5.3990 ha        1 MOL      0.181740
    143 H64         5.3250    2.1950    5.2440 ho        1 MOL      0.376350
    144 N13         2.2080    4.5460    0.5410 n         1 MOL     -0.190164
    145 C48         3.5170    5.0440    0.2200 c3        1 MOL     -0.036198
    146 C49         4.5830    4.6530    1.3040 c         1 MOL      0.485686
    147 O21         4.4970    5.1240    2.4460 o         1 MOL     -0.528465
    148 C50         3.5040    6.5630    0.0060 c3        1 MOL      0.046217
    149 C51         2.8340    6.9650   -1.2740 c3        1 MOL     -0.031661
    150 C52         2.9130    8.5260   -1.5100 c         1 MOL      0.658497
    151 O22         3.7740    8.9490   -2.3170 o         1 MOL     -0.671007
    152 O23         2.1480    9.2150   -0.8500 o         1 MOL     -0.671007
    153 H65         1.6210    5.2940    0.8910 hn        1 MOL      0.230546
    154 H66         3.8690    4.6510   -0.7330 h1        1 MOL      0.058420
    155 H67         4.5420    6.8730   -0.0870 hc        1 MOL      0.008092
    156 H68         3.0880    7.0320    0.9020 hc        1 MOL      0.008092
    157 H69         1.7790    6.7160   -1.2650 hc        1 MOL     -0.028794
    158 H70         3.2980    6.4460   -2.1030 hc        1 MOL     -0.028794
    159 N14         5.6050    3.7950    1.0530 n         1 MOL     -0.384775
    160 C53         5.6520    2.8170   -0.0500 c3        1 MOL      0.051458
    161 C54         6.3510    3.4010   -1.3220 c         1 MOL      0.448677
    162 O24         6.7640    4.5690   -1.2420 o         1 MOL     -0.527648
    163 C55         6.4290    1.6340    0.4600 c3        1 MOL      0.662973
    164 C56         7.9570    1.7220    0.5720 c3        1 MOL     -0.214417
    165 C57         8.5150    0.5920    1.3740 c         1 MOL      0.783351
    166 O25         9.2050   -0.2700    0.8600 o         1 MOL     -0.731454
    167 O26         8.3790    0.6800    2.6080 o         1 MOL     -0.731454
    168 H71         6.4200    3.8180    1.6490 hn        1 MOL      0.261265
    169 H72         4.6450    2.5380   -0.3530 h1        1 MOL      0.022405
    170 H73         6.2920    0.9010   -0.3250 hc        1 MOL     -0.203273
    171 H74         6.0210    1.3830    1.4400 hc        1 MOL     -0.203273
    172 H75         8.2590    2.7260    0.8760 hc        1 MOL     -0.037441
    173 H76         8.3520    1.6520   -0.4350 hc        1 MOL     -0.037441
    174 N15         6.3840    2.6770   -2.4260 n         1 MOL     -0.221667
    175 C58         6.9650    3.0050   -3.7410 c3        1 MOL     -0.354911
    176 H77         7.2880    2.0880   -4.2340 h1        1 MOL      0.134570
    177 H78         6.2150    3.5010   -4.3560 h1        1 MOL      0.134570
    178 H79         7.8210    3.6660   -3.6060 h1        1 MOL      0.134570
    179 H80         6.0080    1.7380   -2.3570 hn        1 MOL      0.234619
    180 Ca1         8.8170   -2.9080    0.3250 Ca        1 MOL      1.710224
    181 O27        10.4370   -4.3730   -1.1320 oh        1 MOL     -0.827305
    182 H81        10.8180   -5.2360   -1.0310 ho        1 MOL      0.393036
    183 H82        10.9710   -3.9490   -1.8100 ho        1 MOL      0.393036
    184 O28         9.0560   -2.2020    3.1060 oh        1 MOL     -0.827305
    185 H83         9.6330   -2.4170    3.8390 ho        1 MOL      0.393036
    186 H84         8.8970   -1.2640    3.1880 ho        1 MOL      0.393036
    187 O29        11.5860   -2.7180    0.8810 oh        1 MOL     -0.827305
    188 H85        12.2210   -3.0940    0.2710 ho        1 MOL      0.393036
    189 H86        11.9290   -1.8460    1.0840 ho        1 MOL      0.393036
    190 O30         9.4810   -1.9760   -2.1100 oh        1 MOL     -0.827305
    191 H87         9.6980   -1.0720   -2.2870 ho        1 MOL      0.393036
    192 H88         8.6610   -2.1260   -2.5930 ho        1 MOL      0.393036
    193 O31         9.2980   -5.0670    1.6890 oh        1 MOL     -0.827305
    194 H89        10.1090   -5.5590    1.7050 ho        1 MOL      0.393036
    195 H90         8.9060   -5.2110    2.5510 ho        1 MOL      0.393036
@<TRIPOS>BOND
     1    1    2 1   
     2    1    4 1   
     3    1    5 1   
     4    1    6 1   
     5    2    3 2   
     6    2    7 1   
     7    7    8 1   
     8    7   15 1   
     9    8    9 1   
    10    8   11 1   
    11    8   16 1   
    12    9   10 2   
    13    9   19 1   
    14   11   12 1   
    15   11   17 1   
    16   11   18 1   
    17   12   13 1   
    18   12   14 1   
    19   19   20 1   
    20   19   27 1   
    21   20   21 1   
    22   20   23 1   
    23   20   28 1   
    24   21   22 2   
    25   21   38 1   
    26   23   24 1   
    27   23   25 1   
    28   23   29 1   
    29   24   26 1   
    30   24   30 1   
    31   24   31 1   
    32   25   32 1   
    33   25   33 1   
    34   25   34 1   
    35   26   35 1   
    36   26   36 1   
    37   26   37 1   
    38   38   39 1   
    39   38   46 1   
    40   39   40 1   
    41   39   42 1   
    42   39   47 1   
    43   40   41 2   
    44   40   50 1   
    45   42   43 1   
    46   42   48 1   
    47   42   49 1   
    48   43   44 1   
    49   43   45 1   
    50   50   51 1   
    51   50   54 1   
    52   51   52 1   
    53   51   55 1   
    54   51   56 1   
    55   52   53 2   
    56   52   57 1   
    57   57   58 1   
    58   57   65 1   
    59   58   59 1   
    60   58   61 1   
    61   58   66 1   
    62   59   60 2   
    63   59   69 1   
    64   61   62 1   
    65   61   67 1   
    66   61   68 1   
    67   62   63 1   
    68   62   64 1   
    69   69   70 1   
    70   69   73 1   
    71   70   71 1   
    72   70   74 1   
    73   70   75 1   
    74   71   72 2   
    75   71   76 1   
    76   76   77 1   
    77   76   85 1   
    78   77   78 1   
    79   77   80 1   
    80   77   86 1   
    81   78   79 2   
    82   78   93 1   
    83   80   81 1   
    84   80   87 1   
    85   80   88 1   
    86   81   82 1   
    87   81   89 1   
    88   81   90 1   
    89   82   83 1   
    90   82   84 2   
    91   83   91 1   
    92   83   92 1   
    93   93   94 1   
    94   93  100 1   
    95   94   95 1   
    96   94   97 1   
    97   94  101 1   
    98   95   96 2   
    99   95  109 1   
   100   97   98 1   
   101   97   99 1   
   102   97  102 1   
   103   98  103 1   
   104   98  104 1   
   105   98  105 1   
   106   99  106 1   
   107   99  107 1   
   108   99  108 1   
   109  109  110 1   
   110  109  117 1   
   111  110  111 1   
   112  110  113 1   
   113  110  118 1   
   114  111  112 2   
   115  111  123 1   
   116  113  114 1   
   117  113  119 1   
   118  113  120 1   
   119  114  115 1   
   120  114  116 2   
   121  115  121 1   
   122  115  122 1   
   123  123  124 1   
   124  123  135 1   
   125  124  125 1   
   126  124  127 1   
   127  124  136 1   
   128  125  126 2   
   129  125  144 1   
   130  127  128 1   
   131  127  137 1   
   132  127  138 1   
   133  128  129 ar  
   134  128  130 ar  
   135  129  131 ar  
   136  129  139 1   
   137  130  132 ar  
   138  130  140 1   
   139  131  133 ar  
   140  131  141 1   
   141  132  133 ar  
   142  132  142 1   
   143  133  134 1   
   144  134  143 1   
   145  144  145 1   
   146  144  153 1   
   147  145  146 1   
   148  145  148 1   
   149  145  154 1   
   150  146  147 2   
   151  146  159 1   
   152  148  149 1   
   153  148  155 1   
   154  148  156 1   
   155  149  150 1   
   156  149  157 1   
   157  149  158 1   
   158  150  151 1   
   159  150  152 1   
   160  159  160 1   
   161  159  168 1   
   162  160  161 1   
   163  160  163 1   
   164  160  169 1   
   165  161  162 2   
   166  161  174 1   
   167  163  164 1   
   168  163  170 1   
   169  163  171 1   
   170  164  165 1   
   171  164  172 1   
   172  164  173 1   
   173  165  166 1   
   174  165  167 1   
   175  174  175 1   
   176  174  179 1   
   177  175  176 1   
   178  175  177 1   
   179  175  178 1   
   180  181  182 1   
   181  181  183 1   
   182  184  185 1   
   183  184  186 1   
   184  187  188 1   
   185  187  189 1   
   186  190  191 1   
   187  190  192 1   
   188  193  194 1   
   189  193  195 1   
@<TRIPOS>SUBSTRUCTURE
     1 MOL         1 TEMP              0 ****  ****    0 ROOT
