@<TRIPOS>MOLECULE
MOL
  191   184     1     0     0
SMALL
resp


@<TRIPOS>ATOM
      1 C1         -6.5920   -4.6460   -1.3070 c3        1 MOL     -0.174512
      2 C2         -6.8460   -3.1680   -1.0860 c         1 MOL      0.753137
      3 O1         -6.0220   -2.4120   -0.5770 o         1 MOL     -0.617252
      4 H1         -5.6970   -4.9460   -0.7630 hc        1 MOL      0.038946
      5 H2         -7.4460   -5.2190   -0.9450 hc        1 MOL      0.038946
      6 H3         -6.4510   -4.8350   -2.3710 hc        1 MOL      0.038946
      7 N1         -8.0570   -2.7270   -1.5860 n         1 MOL     -0.570992
      8 C3         -8.6400   -1.4120   -1.5630 c3        1 MOL      0.210892
      9 C4         -9.0960   -1.0230   -0.1250 c         1 MOL      0.394395
     10 O2         -9.7430    0.0120   -0.0020 o         1 MOL     -0.440669
     11 C5         -7.8150   -0.3920   -2.2900 c3        1 MOL     -0.397878
     12 C6         -8.7360    0.4730   -3.0590 c         1 MOL      0.704150
     13 O3         -9.2440   -0.0460   -4.0700 o         1 MOL     -0.647816
     14 O4         -8.9470    1.6580   -2.7670 o         1 MOL     -0.647816
     15 H4         -8.6020   -3.4600   -2.0330 hn        1 MOL      0.297270
     16 H5         -9.5730   -1.5360   -2.1110 h1        1 MOL      0.059522
     17 H6         -7.1390   -0.8400   -3.0180 hc        1 MOL      0.156973
     18 H7         -7.2290    0.2600   -1.6330 hc        1 MOL      0.156973
     19 N2         -8.7240   -1.7340    0.9150 n         1 MOL     -0.414331
     20 C7         -8.6900   -1.1860    2.3150 c3        1 MOL      0.193312
     21 C8         -7.5180   -0.2240    2.6440 c         1 MOL      0.500637
     22 O5         -7.6160    0.6970    3.4400 o         1 MOL     -0.560557
     23 C9         -8.6750   -2.4060    3.2350 c3        1 MOL     -0.148528
     24 C10        -7.3290   -3.1460    3.1420 c3        1 MOL     -0.032204
     25 C11        -7.2420   -4.6060    3.7600 c3        1 MOL      0.018762
     26 C12        -5.7930   -5.0090    4.1260 c3        1 MOL      0.104804
     27 N3         -5.7880   -6.1020    5.1250 n4        1 MOL     -0.046540
     28 H8         -8.2200   -2.5980    0.7940 hn        1 MOL      0.193246
     29 H9         -9.5900   -0.6210    2.5420 h1        1 MOL      0.070859
     30 H10        -9.4180   -3.1360    2.9070 hc        1 MOL      0.043616
     31 H11        -8.7920   -2.0950    4.2710 hc        1 MOL      0.043616
     32 H12        -6.6270   -2.5360    3.7030 hc        1 MOL      0.056784
     33 H13        -7.0300   -3.1710    2.0900 hc        1 MOL      0.056784
     34 H14        -7.5440   -5.3720    3.0560 hc        1 MOL      0.005570
     35 H15        -7.8960   -4.6530    4.6400 hc        1 MOL      0.005570
     36 H16        -5.2690   -4.1220    4.5130 hx        1 MOL      0.006944
     37 H17        -5.3000   -5.3810    3.2300 hx        1 MOL      0.006944
     38 H18        -4.8670   -6.3290    5.4640 hn        1 MOL      0.136915
     39 H19        -6.3390   -5.8480    5.9300 hn        1 MOL      0.136915
     40 H20        -6.1430   -6.9940    4.8100 hn        1 MOL      0.136915
     41 N4         -6.4830   -0.3550    1.8040 n         1 MOL     -0.141905
     42 C13        -5.1840    0.3460    2.0590 c3        1 MOL     -0.315095
     43 C14        -5.2950    1.7940    1.7030 c         1 MOL      0.772591
     44 O6         -5.6710    2.1270    0.6050 o         1 MOL     -0.527670
     45 C15        -4.1540   -0.3690    1.2460 c3        1 MOL      0.016508
     46 C16        -2.7350    0.2140    1.4400 c         1 MOL      0.727418
     47 O7         -2.0860   -0.2000    2.4130 o         1 MOL     -0.788890
     48 O8         -2.3260    1.2550    0.8080 o         1 MOL     -0.788890
     49 H21        -6.3800   -1.0750    1.1050 hn        1 MOL      0.039519
     50 H22        -4.9550    0.3530    3.1270 h1        1 MOL      0.070095
     51 H23        -4.4110   -0.4250    0.1880 hc        1 MOL      0.042660
     52 H24        -4.0950   -1.4310    1.4810 hc        1 MOL      0.042660
     53 N5         -4.9780    2.7210    2.6390 n         1 MOL     -0.329654
     54 C17        -5.2770    4.2240    2.4390 c3        1 MOL     -0.174035
     55 C18        -4.5990    4.9550    1.2980 c         1 MOL      0.532885
     56 O9         -5.1810    5.8850    0.8200 o         1 MOL     -0.518215
     57 H25        -4.7190    2.4070    3.5690 hn        1 MOL      0.226357
     58 H26        -4.9450    4.6770    3.3680 h1        1 MOL      0.118176
     59 H27        -6.3480    4.3630    2.3850 h1        1 MOL      0.118176
     60 N6         -3.4320    4.6090    0.7450 n         1 MOL     -0.374294
     61 C19        -2.9160    5.1110   -0.4990 c3        1 MOL      0.252346
     62 C20        -3.1520    4.1480   -1.7060 c         1 MOL      0.434859
     63 O10        -3.0140    4.6600   -2.8550 o         1 MOL     -0.562500
     64 C21        -1.3730    5.2870   -0.4040 c3        1 MOL     -0.634255
     65 C22        -1.0510    6.3040    0.7180 c         1 MOL      0.743652
     66 N7         -0.9990    7.5580    0.3030 n         1 MOL     -0.779682
     67 O11        -0.7480    6.0430    1.8660 o         1 MOL     -0.590940
     68 H28        -2.9400    3.9670    1.3310 hn        1 MOL      0.254070
     69 H29        -3.3750    6.0630   -0.7520 h1        1 MOL      0.078685
     70 H30        -0.9020    5.6090   -1.3290 hc        1 MOL      0.170281
     71 H31        -0.9060    4.3260   -0.1940 hc        1 MOL      0.170281
     72 H32        -1.3040    7.8390   -0.6180 hn        1 MOL      0.372177
     73 H33        -0.7530    8.3180    0.9280 hn        1 MOL      0.372177
     74 N8         -3.5390    2.8600   -1.4890 n         1 MOL     -0.189522
     75 C23        -4.0670    1.8880   -2.5270 c3        1 MOL     -0.104228
     76 C24        -3.1880    0.5720   -2.6980 c         1 MOL      0.507456
     77 O12        -3.4970   -0.1730   -3.6110 o         1 MOL     -0.513920
     78 H34        -3.4100    2.5140   -0.5480 hn        1 MOL      0.152540
     79 H35        -4.1820    2.3460   -3.5180 h1        1 MOL      0.133515
     80 H36        -5.0280    1.5890   -2.1180 h1        1 MOL      0.133515
     81 N9         -2.1410    0.2260   -1.9310 n         1 MOL     -0.490255
     82 C25        -1.3450   -0.9650   -2.1200 c3        1 MOL      0.124627
     83 C26         0.1070   -0.8570   -1.5060 c         1 MOL      0.600420
     84 O13         0.2080   -0.3710   -0.3820 o         1 MOL     -0.566469
     85 C27        -2.0220   -2.1480   -1.4660 c3        1 MOL     -0.074572
     86 C28        -1.5190   -3.5150   -1.7890 ca        1 MOL     -0.081031
     87 C29        -1.5600   -4.0070   -3.1190 ca        1 MOL     -0.037454
     88 C30        -0.9390   -4.3490   -0.7840 ca        1 MOL     -0.037454
     89 C31        -0.9240   -5.2470   -3.3630 ca        1 MOL     -0.348296
     90 C32        -0.3130   -5.6140   -1.0470 ca        1 MOL     -0.348296
     91 C33        -0.2910   -6.0460   -2.3930 ca        1 MOL      0.363951
     92 O14         0.3620   -7.1060   -2.8680 oh        1 MOL     -0.452450
     93 H37        -1.9340    0.8010   -1.1230 hn        1 MOL      0.242539
     94 H38        -1.3510   -1.0930   -3.1980 h1        1 MOL      0.068875
     95 H39        -3.0780   -2.0810   -1.6920 hc        1 MOL      0.049584
     96 H40        -1.9400   -1.9910   -0.3910 hc        1 MOL      0.049584
     97 H41        -2.0420   -3.5400   -3.9630 ha        1 MOL      0.127354
     98 H42        -1.0070   -4.0510    0.2530 ha        1 MOL      0.127354
     99 H43        -0.7670   -5.6090   -4.3670 ha        1 MOL      0.163588
    100 H44         0.0840   -6.3010   -0.3190 ha        1 MOL      0.163588
    101 H45         0.5620   -7.6370   -2.0920 ho        1 MOL      0.365860
    102 N10         1.0840   -1.3160   -2.2070 n         1 MOL     -0.575924
    103 C34         2.4390   -1.4210   -1.8050 c3        1 MOL      0.153991
    104 C35         3.1450   -0.0990   -1.6950 c         1 MOL      0.177759
    105 O15         3.9030    0.1220   -0.7800 o         1 MOL     -0.426150
    106 C36         3.1470   -2.5390   -2.6890 c3        1 MOL     -0.026533
    107 C37         2.5140   -3.9640   -2.4030 c3        1 MOL     -0.428273
    108 C38         4.6530   -2.6590   -2.3370 c3        1 MOL     -0.043441
    109 C39         2.7450   -4.4740   -0.9990 c3        1 MOL      0.055325
    110 H46         0.7840   -1.9810   -2.9130 hn        1 MOL      0.275412
    111 H47         2.5030   -1.8750   -0.8100 h1        1 MOL      0.126976
    112 H48         3.0710   -2.2840   -3.7460 hc        1 MOL      0.035435
    113 H49         2.9270   -4.6440   -3.1400 hc        1 MOL      0.182693
    114 H50         1.4480   -3.8490   -2.6030 hc        1 MOL      0.182693
    115 H51         5.1760   -1.7240   -2.5270 hc        1 MOL      0.036494
    116 H52         4.7260   -2.7250   -1.2520 hc        1 MOL      0.036494
    117 H53         5.2280   -3.4200   -2.8520 hc        1 MOL      0.036494
    118 H54         2.2890   -5.4520   -0.8580 hc        1 MOL     -0.003085
    119 H55         3.7990   -4.6150   -0.7540 hc        1 MOL     -0.003085
    120 H56         2.2710   -3.8150   -0.2770 hc        1 MOL     -0.003085
    121 N11         2.8680    0.8840   -2.5820 n         1 MOL     -0.137934
    122 C40         3.3540    2.2900   -2.4070 c3        1 MOL      0.018672
    123 C41         4.8870    2.4260   -2.4350 c         1 MOL      0.343216
    124 O16         5.5130    3.2270   -1.6360 o         1 MOL     -0.458890
    125 C42         2.6500    3.1480   -3.4430 c3        1 MOL      0.004025
    126 O17         1.2380    2.9810   -3.1600 oh        1 MOL     -0.607491
    127 H57         2.3280    0.7250   -3.4210 hn        1 MOL      0.271176
    128 H58         3.0550    2.5730   -1.4060 h1        1 MOL      0.058102
    129 H59         2.7980    2.7350   -4.4330 h1        1 MOL      0.102058
    130 H60         2.8370    4.2160   -3.3120 h1        1 MOL      0.102058
    131 H61         0.8150    3.8010   -3.4200 ho        1 MOL      0.432921
    132 N12         5.5160    1.5160   -3.2100 n         1 MOL     -0.371913
    133 C43         7.0040    1.5740   -3.3220 c3        1 MOL      0.202131
    134 C44         7.9270    1.4260   -2.0710 c         1 MOL      0.665216
    135 O18         9.0070    1.9910   -2.0390 o         1 MOL     -0.547140
    136 C45         7.3690    2.7410   -4.2250 c3        1 MOL     -0.434429
    137 H62         5.0500    0.8520   -3.8060 hn        1 MOL      0.249021
    138 H63         7.3210    0.6580   -3.8300 h1        1 MOL      0.033968
    139 H64         8.4040    2.6260   -4.5400 hc        1 MOL      0.126279
    140 H65         6.8120    2.7770   -5.1700 hc        1 MOL      0.126279
    141 H66         7.1920    3.6760   -3.6920 hc        1 MOL      0.126279
    142 N13         7.3900    0.7120   -1.0590 n         1 MOL     -0.827039
    143 C46         7.8450    0.7810    0.3050 c3        1 MOL      0.573035
    144 C47         8.5850   -0.4440    0.5220 c         1 MOL      0.461419
    145 O19         8.0570   -1.5360    0.4900 o         1 MOL     -0.508797
    146 C48         6.7200    1.0550    1.2660 c3        1 MOL     -0.424913
    147 H67         6.4200    0.4520   -1.0920 hn        1 MOL      0.369914
    148 H68         8.5350    1.6130    0.4440 h1        1 MOL     -0.023037
    149 H69         5.9310    0.3650    0.9900 hc        1 MOL      0.092803
    150 H70         7.1870    0.9230    2.2390 hc        1 MOL      0.092803
    151 H71         6.4180    2.0740    1.0400 hc        1 MOL      0.092803
    152 N14         9.8870   -0.2160    0.9350 n         1 MOL     -0.633885
    153 C49        10.7570   -1.2080    1.5700 c3        1 MOL      0.300047
    154 C50        10.8860   -2.4820    0.7630 c         1 MOL      0.412970
    155 O20        10.9800   -3.4890    1.3680 o         1 MOL     -0.499374
    156 C51        10.4710   -1.3450    3.0720 c3        1 MOL     -0.089695
    157 C52        10.8220   -0.1290    3.9090 c3        1 MOL     -0.005861
    158 C53        12.2520   -0.1720    4.3850 c         1 MOL      0.645207
    159 O21        13.2130   -0.1000    3.5290 o         1 MOL     -0.636114
    160 O22        12.5240   -0.3380    5.5960 o         1 MOL     -0.636114
    161 H72        10.2060    0.7400    0.9000 hn        1 MOL      0.334883
    162 H73        11.7600   -0.7860    1.4390 h1        1 MOL     -0.020016
    163 H74        10.9990   -2.1910    3.5040 hc        1 MOL      0.040422
    164 H75         9.4200   -1.6230    3.1210 hc        1 MOL      0.040422
    165 H76        10.2290    0.0890    4.8030 hc        1 MOL     -0.042882
    166 H77        10.6640    0.6640    3.1860 hc        1 MOL     -0.042882
    167 N15        10.9130   -2.3560   -0.5780 n         1 MOL     -0.260966
    168 C54        10.8170   -3.4380   -1.5350 c3        1 MOL     -0.117160
    169 H78        10.1200   -3.1620   -2.3250 h1        1 MOL      0.070189
    170 H79        11.7990   -3.6290   -1.9680 h1        1 MOL      0.070189
    171 H80        10.4610   -4.3370   -1.0330 h1        1 MOL      0.070189
    172 H81        10.9900   -1.4580   -1.0280 hn        1 MOL      0.230543
    173 Ca1         0.1890    0.9850    1.9340 Ca        1 MOL      1.821051
    174 O23         0.5770    0.7680    4.6850 oh        1 MOL     -0.856280
    175 H82         0.0540    0.7400    5.4860 ho        1 MOL      0.422044
    176 H83         1.1280   -0.0160    4.7360 ho        1 MOL      0.422044
    177 O24         1.2180    3.5980    2.4990 oh        1 MOL     -0.856280
    178 H84         1.9960    4.1360    2.6900 ho        1 MOL      0.422044
    179 H85         0.4920    4.2190    2.5080 ho        1 MOL      0.422044
    180 O25         2.7170    0.7200    1.5070 oh        1 MOL     -0.856280
    181 H86         3.2120    1.3990    1.9660 ho        1 MOL      0.422044
    182 H87         3.2840    0.4690    0.7780 ho        1 MOL      0.422044
    183 O26        -1.5980    3.0590    3.2550 oh        1 MOL     -0.856280
    184 H88        -2.1920    2.6010    3.8400 ho        1 MOL      0.422044
    185 H89        -1.2620    3.7890    3.7720 ho        1 MOL      0.422044
    186 O27         1.1840   -1.2500    2.8270 oh        1 MOL     -0.856280
    187 H90         0.8310   -2.0910    3.1000 ho        1 MOL      0.422044
    188 H91         2.1250   -1.3690    2.8260 ho        1 MOL      0.422044
    189 O28         0.7370    2.6680   -0.2330 oh        1 MOL     -0.856280
    190 H92         1.1790    3.4950   -0.0380 ho        1 MOL      0.422044
    191 H93         0.7750    2.5980   -1.1850 ho        1 MOL      0.422044
@<TRIPOS>BOND
     1    1    2 1   
     2    1    4 1   
     3    1    5 1   
     4    1    6 1   
     5    2    3 2   
     6    2    7 1   
     7    7    8 1   
     8    7   15 1   
     9    8    9 1   
    10    8   11 1   
    11    8   16 1   
    12    9   10 2   
    13    9   19 1   
    14   11   12 1   
    15   11   17 1   
    16   11   18 1   
    17   12   13 1   
    18   12   14 1   
    19   19   20 1   
    20   19   28 1   
    21   20   21 1   
    22   20   23 1   
    23   20   29 1   
    24   21   22 2   
    25   21   41 1   
    26   23   24 1   
    27   23   30 1   
    28   23   31 1   
    29   24   25 1   
    30   24   32 1   
    31   24   33 1   
    32   25   26 1   
    33   25   34 1   
    34   25   35 1   
    35   26   27 1   
    36   26   36 1   
    37   26   37 1   
    38   27   38 1   
    39   27   39 1   
    40   27   40 1   
    41   41   42 1   
    42   41   49 1   
    43   42   43 1   
    44   42   45 1   
    45   42   50 1   
    46   43   44 2   
    47   43   53 1   
    48   45   46 1   
    49   45   51 1   
    50   45   52 1   
    51   46   47 1   
    52   46   48 1   
    53   53   54 1   
    54   53   57 1   
    55   54   55 1   
    56   54   58 1   
    57   54   59 1   
    58   55   56 2   
    59   55   60 1   
    60   60   61 1   
    61   60   68 1   
    62   61   62 1   
    63   61   64 1   
    64   61   69 1   
    65   62   63 2   
    66   62   74 1   
    67   64   65 1   
    68   64   70 1   
    69   64   71 1   
    70   65   66 1   
    71   65   67 2   
    72   66   72 1   
    73   66   73 1   
    74   74   75 1   
    75   74   78 1   
    76   75   76 1   
    77   75   79 1   
    78   75   80 1   
    79   76   77 2   
    80   76   81 1   
    81   81   82 1   
    82   81   93 1   
    83   82   83 1   
    84   82   85 1   
    85   82   94 1   
    86   83   84 2   
    87   83  102 1   
    88   85   86 1   
    89   85   95 1   
    90   85   96 1   
    91   86   87 ar  
    92   86   88 ar  
    93   87   89 ar  
    94   87   97 1   
    95   88   90 ar  
    96   88   98 1   
    97   89   91 ar  
    98   89   99 1   
    99   90   91 ar  
   100   90  100 1   
   101   91   92 1   
   102   92  101 1   
   103  102  103 1   
   104  102  110 1   
   105  103  104 1   
   106  103  106 1   
   107  103  111 1   
   108  104  105 2   
   109  104  121 1   
   110  106  107 1   
   111  106  108 1   
   112  106  112 1   
   113  107  109 1   
   114  107  113 1   
   115  107  114 1   
   116  108  115 1   
   117  108  116 1   
   118  108  117 1   
   119  109  118 1   
   120  109  119 1   
   121  109  120 1   
   122  121  122 1   
   123  121  127 1   
   124  122  123 1   
   125  122  125 1   
   126  122  128 1   
   127  123  124 2   
   128  123  132 1   
   129  125  126 1   
   130  125  129 1   
   131  125  130 1   
   132  126  131 1   
   133  132  133 1   
   134  132  137 1   
   135  133  134 1   
   136  133  136 1   
   137  133  138 1   
   138  134  135 2   
   139  134  142 1   
   140  136  139 1   
   141  136  140 1   
   142  136  141 1   
   143  142  143 1   
   144  142  147 1   
   145  143  144 1   
   146  143  146 1   
   147  143  148 1   
   148  144  145 2   
   149  144  152 1   
   150  146  149 1   
   151  146  150 1   
   152  146  151 1   
   153  152  153 1   
   154  152  161 1   
   155  153  154 1   
   156  153  156 1   
   157  153  162 1   
   158  154  155 2   
   159  154  167 1   
   160  156  157 1   
   161  156  163 1   
   162  156  164 1   
   163  157  158 1   
   164  157  165 1   
   165  157  166 1   
   166  158  159 1   
   167  158  160 1   
   168  167  168 1   
   169  167  172 1   
   170  168  169 1   
   171  168  170 1   
   172  168  171 1   
   173  174  175 1   
   174  174  176 1   
   175  177  178 1   
   176  177  179 1   
   177  180  181 1   
   178  180  182 1   
   179  183  184 1   
   180  183  185 1   
   181  186  187 1   
   182  186  188 1   
   183  189  190 1   
   184  189  191 1   
@<TRIPOS>SUBSTRUCTURE
     1 MOL         1 TEMP              0 ****  ****    0 ROOT
