@<TRIPOS>MOLECULE
MOL
  181   177     1     0     0
SMALL
resp


@<TRIPOS>ATOM
      1 C1          6.7500   -4.1680    5.2700 c3        1 MOL     -0.299465
      2 C2          6.1520   -3.1160    4.2830 c         1 MOL      0.629389
      3 O1          5.6110   -2.0490    4.6970 o         1 MOL     -0.561137
      4 H1          7.6120   -4.6490    4.8080 hc        1 MOL      0.071654
      5 H2          7.0610   -3.6710    6.1880 hc        1 MOL      0.071654
      6 H3          5.9950   -4.9210    5.5000 hc        1 MOL      0.071654
      7 N1          6.1980   -3.2680    2.9500 n         1 MOL     -0.414449
      8 C3          6.9270   -4.2390    2.1820 c3        1 MOL      0.103542
      9 C4          6.0780   -4.8080    1.0620 c         1 MOL      0.409975
     10 O2          4.8510   -4.9040    1.2090 o         1 MOL     -0.423667
     11 C5          8.2200   -3.6260    1.8170 c3        1 MOL     -0.053031
     12 C6          8.1890   -2.2580    1.0740 c         1 MOL      0.565498
     13 O3          8.3220   -1.1670    1.7110 o         1 MOL     -0.697926
     14 O4          8.0230   -2.2970   -0.1740 o         1 MOL     -0.697926
     15 H4          5.8510   -2.4530    2.4430 hn        1 MOL      0.253750
     16 H5          7.2450   -5.0920    2.7790 h1        1 MOL      0.050367
     17 H6          8.7230   -4.3650    1.1970 hc        1 MOL     -0.013066
     18 H7          8.8470   -3.5390    2.7020 hc        1 MOL     -0.013066
     19 N2          6.6170   -5.2230   -0.0670 n         1 MOL     -0.517473
     20 C7          5.7760   -5.6130   -1.2720 c3        1 MOL      0.112402
     21 C8          4.6910   -4.5970   -1.5500 c         1 MOL      0.430859
     22 O5          3.6240   -4.9610   -1.9830 o         1 MOL     -0.456581
     23 C9          5.3010   -7.0200   -1.0370 c3        1 MOL     -0.124155
     24 H8          7.6210   -5.1000   -0.1770 hn        1 MOL      0.321667
     25 H9          6.4790   -5.7130   -2.0980 h1        1 MOL      0.048178
     26 H10         4.7090   -7.0680   -0.1270 hc        1 MOL      0.044571
     27 H11         4.6310   -7.2890   -1.8470 hc        1 MOL      0.044571
     28 H12         6.0570   -7.8060   -0.9860 hc        1 MOL      0.044571
     29 N3          4.9920   -3.2560   -1.3370 n         1 MOL     -0.285996
     30 C10         4.1610   -2.0490   -1.7400 c3        1 MOL      0.068314
     31 C11         4.9030   -0.8520   -2.4380 c         1 MOL      0.306824
     32 O6          6.1260   -0.8090   -2.4980 o         1 MOL     -0.530735
     33 C12         3.4400   -1.5130   -0.5080 c3        1 MOL     -0.028064
     34 C13         4.2800   -1.2590    0.7370 c         1 MOL      0.558271
     35 O7          3.8720   -1.7040    1.8470 o         1 MOL     -0.600675
     36 O8          5.3650   -0.6260    0.6220 o         1 MOL     -0.600675
     37 H13         5.9020   -2.9850   -0.9860 hn        1 MOL      0.149677
     38 H14         3.4640   -2.3520   -2.5240 h1        1 MOL      0.035311
     39 H15         2.6850   -2.2230   -0.1800 hc        1 MOL      0.029463
     40 H16         2.9630   -0.5700   -0.7920 hc        1 MOL      0.029463
     41 N4          4.1760    0.0970   -2.9330 n         1 MOL     -0.060023
     42 C14         4.7350    1.3730   -3.2980 c3        1 MOL     -0.511434
     43 C15         5.0490    2.1920   -2.0790 c         1 MOL      0.680421
     44 O9          5.3790    1.7240   -0.9780 o         1 MOL     -0.579600
     45 H17         3.1780   -0.0850   -3.0010 hn        1 MOL      0.199846
     46 H18         4.0170    1.8000   -4.0010 h1        1 MOL      0.182412
     47 H19         5.6390    1.1750   -3.8620 h1        1 MOL      0.182412
     48 N5          4.9390    3.5100   -2.1690 n         1 MOL     -0.532999
     49 C16         4.8610    4.5110   -1.1330 c3        1 MOL      0.017220
     50 C17         3.4240    4.6670   -0.4400 c         1 MOL      0.537974
     51 O10         2.6130    5.2020   -1.1580 o         1 MOL     -0.508483
     52 C18         5.3600    5.9150   -1.6780 c3        1 MOL     -0.243122
     53 C19         5.5520    7.0270   -0.6880 c         1 MOL      0.643535
     54 N6          6.6910    7.6190   -0.4770 n         1 MOL     -0.743071
     55 O11         4.6160    7.4330   -0.0110 o         1 MOL     -0.519109
     56 H20         4.6480    3.8960   -3.0570 hn        1 MOL      0.314587
     57 H21         5.4550    4.1500   -0.2920 h1        1 MOL      0.032085
     58 H22         4.7950    6.2360   -2.5550 hc        1 MOL      0.063389
     59 H23         6.3740    5.6990   -2.0100 hc        1 MOL      0.063389
     60 H24         7.5050    7.2240   -0.9220 hn        1 MOL      0.347150
     61 H25         6.7560    8.4020    0.1480 hn        1 MOL      0.347150
     62 N7          3.2720    4.1460    0.7610 n         1 MOL     -0.414793
     63 C20         2.0520    3.9450    1.5000 c3        1 MOL     -0.053928
     64 C21         1.5300    2.4890    1.3870 c         1 MOL      0.509436
     65 O12         2.1120    1.6460    2.0470 o         1 MOL     -0.491087
     66 H26         4.1100    3.7530    1.1500 hn        1 MOL      0.294093
     67 H27         1.2820    4.6550    1.1890 h1        1 MOL      0.100507
     68 H28         2.2740    4.2180    2.5300 h1        1 MOL      0.100507
     69 N8          0.4350    2.2660    0.6510 n         1 MOL     -0.318010
     70 C22        -0.2180    3.1260   -0.2990 c3        1 MOL      0.054541
     71 C23        -1.4690    3.8020    0.2350 c         1 MOL      0.208371
     72 O13        -1.7720    4.9860    0.0160 o         1 MOL     -0.459599
     73 C24        -0.6830    2.2850   -1.5080 c3        1 MOL      0.319623
     74 C25         0.5190    1.9400   -2.4860 c3        1 MOL     -0.558585
     75 O14        -1.1810    1.0540   -1.0450 oh        1 MOL     -0.614593
     76 H29         0.0480    1.3390    0.6250 hn        1 MOL      0.266666
     77 H30         0.3470    3.9600   -0.7320 h1        1 MOL      0.058886
     78 H31        -1.4700    2.7920   -2.0800 h1        1 MOL      0.062399
     79 H32        -1.7030    0.6980   -1.7650 ho        1 MOL      0.410710
     80 H33         0.1750    1.2420   -3.2510 hc        1 MOL      0.157763
     81 H34         0.7750    2.8600   -3.0090 hc        1 MOL      0.157763
     82 H35         1.3910    1.5950   -1.9200 hc        1 MOL      0.157763
     83 N9         -2.2840    2.9950    0.9830 n         1 MOL     -0.043460
     84 C26        -3.4630    3.4780    1.6650 c3        1 MOL     -0.001993
     85 C27        -4.4520    4.3380    0.8430 c         1 MOL      0.435310
     86 O15        -4.8690    5.4700    1.2650 o         1 MOL     -0.554046
     87 C28        -3.0780    4.0440    3.1120 c3        1 MOL      0.051231
     88 C29        -2.0810    3.1150    3.8900 c3        1 MOL     -0.110419
     89 C30        -4.3190    4.3060    4.0720 c3        1 MOL     -0.119460
     90 C31        -2.6610    1.6890    4.1190 c3        1 MOL     -0.076884
     91 H36        -2.1380    1.9970    0.8750 hn        1 MOL      0.167401
     92 H37        -4.0660    2.5920    1.8310 h1        1 MOL      0.088547
     93 H38        -2.6280    5.0380    3.0740 hc        1 MOL      0.039224
     94 H39        -2.0370    3.5330    4.8910 hc        1 MOL      0.009952
     95 H40        -1.1190    3.0430    3.3930 hc        1 MOL      0.009952
     96 H41        -3.9440    4.7460    4.9940 hc        1 MOL      0.026166
     97 H42        -5.0030    5.0840    3.7360 hc        1 MOL      0.026166
     98 H43        -4.9400    3.4330    4.2790 hc        1 MOL      0.026166
     99 H44        -3.5850    1.6890    4.6940 hc        1 MOL      0.023766
    100 H45        -2.8670    1.1820    3.1830 hc        1 MOL      0.023766
    101 H46        -1.9120    1.0730    4.6110 hc        1 MOL      0.023766
    102 N10        -5.0540    3.8480   -0.2370 n         1 MOL     -0.396994
    103 C32        -4.8990    2.5220   -0.8710 c3        1 MOL      0.441944
    104 C33        -5.5730    1.4050   -0.1110 c         1 MOL      0.214979
    105 O16        -4.9590    0.4590    0.3210 o         1 MOL     -0.513948
    106 C34        -5.3660    2.6990   -2.3210 c3        1 MOL     -0.336136
    107 C35        -6.7750    3.2530   -2.6030 c         1 MOL      0.789397
    108 O17        -7.1960    3.1060   -3.7270 o         1 MOL     -0.704942
    109 O18        -7.4750    3.8030   -1.7610 o         1 MOL     -0.704942
    110 H47        -5.7830    4.4250   -0.6310 hn        1 MOL      0.238541
    111 H48        -3.8310    2.3030   -0.8730 h1        1 MOL     -0.094602
    112 H49        -5.4230    1.6840   -2.7180 hc        1 MOL      0.058333
    113 H50        -4.6290    3.2260   -2.9300 hc        1 MOL      0.058333
    114 N11        -6.8730    1.5460    0.1460 n         1 MOL     -0.339174
    115 C36        -7.7040    0.3870    0.5070 c3        1 MOL      0.357288
    116 C37        -8.3230   -0.0190   -0.8690 c         1 MOL      0.439375
    117 O19        -8.9600    0.8500   -1.4570 o         1 MOL     -0.509535
    118 C38        -8.6590    0.8950    1.6010 c3        1 MOL     -0.541984
    119 C39        -9.6800   -0.2060    1.9780 ca        1 MOL      0.188928
    120 C40       -10.9180   -0.2550    1.3640 ca        1 MOL     -0.190669
    121 C41        -9.2980   -1.1570    2.9530 ca        1 MOL     -0.190669
    122 C42       -11.8320   -1.2230    1.7280 ca        1 MOL     -0.087829
    123 C43       -10.1890   -2.2080    3.2790 ca        1 MOL     -0.087829
    124 C44       -11.4880   -2.2080    2.7110 ca        1 MOL     -0.204781
    125 H51        -7.2910    2.4190   -0.1450 hn        1 MOL      0.210383
    126 H52        -7.0740   -0.3540    0.9820 h1        1 MOL      0.032802
    127 H53        -9.2640    1.7710    1.3720 hc        1 MOL      0.172373
    128 H54        -8.1250    1.0500    2.5290 hc        1 MOL      0.172373
    129 H55       -11.0890    0.4840    0.5950 ha        1 MOL      0.121236
    130 H56        -8.2960   -1.1360    3.3530 ha        1 MOL      0.121236
    131 H57       -12.8040   -1.2250    1.2590 ha        1 MOL      0.101866
    132 H58        -9.9890   -2.9210    4.0620 ha        1 MOL      0.101866
    133 H59       -12.2010   -2.9840    2.9590 ha        1 MOL      0.116621
    134 N12        -8.2550   -1.2350   -1.3830 n         1 MOL      0.001985
    135 C45        -7.6890   -2.4450   -0.7890 c3        1 MOL      0.092039
    136 C46        -6.1030   -2.4630   -0.9770 c         1 MOL      0.514391
    137 O20        -5.6240   -1.6250   -1.7680 o         1 MOL     -0.487198
    138 C47        -8.3170   -3.6750   -1.4040 c3        1 MOL     -0.177083
    139 C48        -8.4580   -3.0540   -2.8450 c3        1 MOL     -0.056983
    140 C49        -8.8300   -1.6230   -2.6090 c3        1 MOL     -0.041602
    141 H60        -7.9040   -2.4310    0.2780 h1        1 MOL     -0.056517
    142 H61        -7.7320   -4.5950   -1.3490 hc        1 MOL      0.047707
    143 H62        -9.3470   -3.7580   -1.0570 hc        1 MOL      0.047707
    144 H63        -7.5470   -3.0740   -3.4470 hc        1 MOL      0.058399
    145 H64        -9.2020   -3.6290   -3.3790 hc        1 MOL      0.058399
    146 H65        -8.4330   -0.9730   -3.3800 h1        1 MOL      0.039252
    147 H66        -9.8940   -1.4680   -2.4280 h1        1 MOL      0.039252
    148 N13        -5.3170   -3.3050   -0.2690 n         1 MOL     -0.400787
    149 C50        -3.9120   -3.1380   -0.0860 c3        1 MOL      0.185925
    150 C51        -3.3240   -3.8980    1.1280 c         1 MOL      0.473601
    151 O21        -2.3650   -4.6420    1.0140 o         1 MOL     -0.506269
    152 C52        -3.2570   -3.5900   -1.3750 c3        1 MOL     -0.352607
    153 C53        -3.4030   -5.0660   -1.7790 c3        1 MOL      0.123105
    154 C54        -3.5240   -5.3100   -3.2610 c         1 MOL      0.592702
    155 O22        -4.7060   -5.2630   -3.7600 o         1 MOL     -0.660043
    156 O23        -2.4860   -5.4620   -3.9760 o         1 MOL     -0.660043
    157 H67        -5.7870   -3.8390    0.4540 hn        1 MOL      0.248639
    158 H68        -3.8330   -2.0620    0.0700 h1        1 MOL      0.040521
    159 H69        -2.1860   -3.3990   -1.3180 hc        1 MOL      0.119818
    160 H70        -3.6290   -3.0590   -2.2550 hc        1 MOL      0.119818
    161 H71        -4.2650   -5.5220   -1.2950 hc        1 MOL     -0.048046
    162 H72        -2.6220   -5.7190   -1.3880 hc        1 MOL     -0.048046
    163 N14        -3.9370   -3.8540    2.3120 n         1 MOL     -0.387307
    164 C55        -4.9270   -3.0110    2.9190 c3        1 MOL      0.125391
    165 H73        -4.4530   -2.1000    3.2850 h1        1 MOL     -0.005823
    166 H74        -5.6870   -2.7520    2.1810 h1        1 MOL     -0.005823
    167 H75        -5.3930   -3.5380    3.7520 h1        1 MOL     -0.005823
    168 H76        -3.6290   -4.5630    2.9640 hn        1 MOL      0.257004
    169 Ca1         7.6600    0.2390   -0.3010 Ca        1 MOL      1.823180
    170 O24         9.3430   -0.4790   -2.3680 oh        1 MOL     -0.866415
    171 H77        10.1270   -1.0200   -2.3440 ho        1 MOL      0.410267
    172 H78         9.3460   -0.1050   -3.2520 ho        1 MOL      0.410267
    173 O25         8.0250    2.4550   -1.7400 oh        1 MOL     -0.866415
    174 H79         8.1410    3.2180   -1.1800 ho        1 MOL      0.410267
    175 H80         7.8440    2.8160   -2.6040 ho        1 MOL      0.410267
    176 O26         7.2480    1.9940    1.5880 oh        1 MOL     -0.866415
    177 H81         7.1340    2.9360    1.6620 ho        1 MOL      0.410267
    178 H82         6.5300    1.6290    2.1050 ho        1 MOL      0.410267
    179 O27        10.0820    1.4910    0.4870 oh        1 MOL     -0.866415
    180 H83        10.3970    2.2720    0.9350 ho        1 MOL      0.410267
    181 H84        10.8290    0.8880    0.5030 ho        1 MOL      0.410267
@<TRIPOS>BOND
     1    1    2 1   
     2    1    4 1   
     3    1    5 1   
     4    1    6 1   
     5    2    3 2   
     6    2    7 1   
     7    7    8 1   
     8    7   15 1   
     9    8    9 1   
    10    8   11 1   
    11    8   16 1   
    12    9   10 2   
    13    9   19 1   
    14   11   12 1   
    15   11   17 1   
    16   11   18 1   
    17   12   13 1   
    18   12   14 1   
    19   19   20 1   
    20   19   24 1   
    21   20   21 1   
    22   20   23 1   
    23   20   25 1   
    24   21   22 2   
    25   21   29 1   
    26   23   26 1   
    27   23   27 1   
    28   23   28 1   
    29   29   30 1   
    30   29   37 1   
    31   30   31 1   
    32   30   33 1   
    33   30   38 1   
    34   31   32 2   
    35   31   41 1   
    36   33   34 1   
    37   33   39 1   
    38   33   40 1   
    39   34   35 1   
    40   34   36 1   
    41   41   42 1   
    42   41   45 1   
    43   42   43 1   
    44   42   46 1   
    45   42   47 1   
    46   43   44 2   
    47   43   48 1   
    48   48   49 1   
    49   48   56 1   
    50   49   50 1   
    51   49   52 1   
    52   49   57 1   
    53   50   51 2   
    54   50   62 1   
    55   52   53 1   
    56   52   58 1   
    57   52   59 1   
    58   53   54 1   
    59   53   55 2   
    60   54   60 1   
    61   54   61 1   
    62   62   63 1   
    63   62   66 1   
    64   63   64 1   
    65   63   67 1   
    66   63   68 1   
    67   64   65 2   
    68   64   69 1   
    69   69   70 1   
    70   69   76 1   
    71   70   71 1   
    72   70   73 1   
    73   70   77 1   
    74   71   72 2   
    75   71   83 1   
    76   73   74 1   
    77   73   75 1   
    78   73   78 1   
    79   74   80 1   
    80   74   81 1   
    81   74   82 1   
    82   75   79 1   
    83   83   84 1   
    84   83   91 1   
    85   84   85 1   
    86   84   87 1   
    87   84   92 1   
    88   85   86 2   
    89   85  102 1   
    90   87   88 1   
    91   87   89 1   
    92   87   93 1   
    93   88   90 1   
    94   88   94 1   
    95   88   95 1   
    96   89   96 1   
    97   89   97 1   
    98   89   98 1   
    99   90   99 1   
   100   90  100 1   
   101   90  101 1   
   102  102  103 1   
   103  102  110 1   
   104  103  104 1   
   105  103  106 1   
   106  103  111 1   
   107  104  105 2   
   108  104  114 1   
   109  106  107 1   
   110  106  112 1   
   111  106  113 1   
   112  107  108 1   
   113  107  109 1   
   114  114  115 1   
   115  114  125 1   
   116  115  116 1   
   117  115  118 1   
   118  115  126 1   
   119  116  117 2   
   120  116  134 1   
   121  118  119 1   
   122  118  127 1   
   123  118  128 1   
   124  119  120 ar  
   125  119  121 ar  
   126  120  122 ar  
   127  120  129 1   
   128  121  123 ar  
   129  121  130 1   
   130  122  124 ar  
   131  122  131 1   
   132  123  124 ar  
   133  123  132 1   
   134  124  133 1   
   135  134  135 1   
   136  134  140 1   
   137  135  136 1   
   138  135  138 1   
   139  135  141 1   
   140  136  137 2   
   141  136  148 1   
   142  138  139 1   
   143  138  142 1   
   144  138  143 1   
   145  139  140 1   
   146  139  144 1   
   147  139  145 1   
   148  140  146 1   
   149  140  147 1   
   150  148  149 1   
   151  148  157 1   
   152  149  150 1   
   153  149  152 1   
   154  149  158 1   
   155  150  151 2   
   156  150  163 1   
   157  152  153 1   
   158  152  159 1   
   159  152  160 1   
   160  153  154 1   
   161  153  161 1   
   162  153  162 1   
   163  154  155 1   
   164  154  156 1   
   165  163  164 1   
   166  163  168 1   
   167  164  165 1   
   168  164  166 1   
   169  164  167 1   
   170  170  171 1   
   171  170  172 1   
   172  173  174 1   
   173  173  175 1   
   174  176  177 1   
   175  176  178 1   
   176  179  180 1   
   177  179  181 1   
@<TRIPOS>SUBSTRUCTURE
     1 MOL         1 TEMP              0 ****  ****    0 ROOT
