@<TRIPOS>MOLECULE
MOL
  192   187     1     0     0
SMALL
resp


@<TRIPOS>ATOM
      1 C1          9.3080    1.6190    1.5390 c3        1 MOL     -0.491789
      2 C2          8.1010    1.2280    0.7040 c         1 MOL      0.663991
      3 O1          7.1330    1.9930    0.5440 o         1 MOL     -0.581087
      4 H1          9.7970    2.4810    1.0880 hc        1 MOL      0.127816
      5 H2          8.9850    1.8710    2.5490 hc        1 MOL      0.127816
      6 H3         10.0080    0.7840    1.5790 hc        1 MOL      0.127816
      7 N1          8.2770    0.0430    0.0660 n         1 MOL     -0.416963
      8 C3          7.4850   -0.4340   -1.0230 c3        1 MOL      0.009661
      9 C4          6.7630   -1.8540   -0.8320 c         1 MOL      0.226831
     10 O2          6.5450   -2.5190   -1.7960 o         1 MOL     -0.408427
     11 C5          8.2490   -0.4120   -2.3170 c3        1 MOL     -0.157495
     12 C6          9.5160   -1.2960   -2.3300 c         1 MOL      0.694560
     13 O3          9.5970   -2.2260   -1.4580 o         1 MOL     -0.665481
     14 O4         10.4670   -1.1080   -3.1590 o         1 MOL     -0.665481
     15 H4          9.1620   -0.4060    0.2370 hn        1 MOL      0.244377
     16 H5          6.6980    0.2920   -1.1790 h1        1 MOL      0.161971
     17 H6          8.5350    0.6320   -2.4610 hc        1 MOL      0.055059
     18 H7          7.6680   -0.5900   -3.2220 hc        1 MOL      0.055059
     19 N2          6.5090   -2.3030    0.3460 n         1 MOL     -0.013323
     20 C7          5.8990   -3.6970    0.6660 c3        1 MOL     -0.056585
     21 C8          4.4080   -3.9710    0.2220 c         1 MOL      0.531990
     22 O5          4.0270   -5.0420   -0.1540 o         1 MOL     -0.526772
     23 C9          6.0300   -4.0880    2.2050 c3        1 MOL      0.145666
     24 C10         7.4190   -4.4540    2.7480 c3        1 MOL     -0.223076
     25 C11         8.3840   -3.3270    2.9940 c3        1 MOL      0.233776
     26 C12         9.7950   -3.7530    3.2840 c3        1 MOL     -0.175699
     27 N3          9.7990   -4.6460    4.4410 n4        1 MOL     -0.122134
     28 H8          6.7890   -1.7600    1.1500 hn        1 MOL      0.070065
     29 H9          6.4780   -4.4240    0.0940 h1        1 MOL      0.097430
     30 H10         5.3810   -4.9480    2.3300 hc        1 MOL     -0.000023
     31 H11         5.5460   -3.2780    2.7560 hc        1 MOL     -0.000023
     32 H12         7.9060   -5.0770    1.9990 hc        1 MOL      0.057559
     33 H13         7.1700   -5.0260    3.6370 hc        1 MOL      0.057559
     34 H14         8.0360   -2.7430    3.8580 hc        1 MOL     -0.049952
     35 H15         8.3900   -2.6460    2.1510 hc        1 MOL     -0.049952
     36 H16        10.3920   -2.8590    3.4820 hx        1 MOL      0.140370
     37 H17        10.1070   -4.3530    2.4200 hx        1 MOL      0.140370
     38 H18         9.3800   -4.2510    5.2710 hn        1 MOL      0.236601
     39 H19         9.2180   -5.4670    4.4100 hn        1 MOL      0.236601
     40 H20        10.7370   -4.8850    4.7290 hn        1 MOL      0.236601
     41 N4          3.3840   -3.1320    0.5240 n         1 MOL     -0.503081
     42 C13         3.4920   -1.7790    1.0650 c3        1 MOL     -0.059981
     43 C14         3.7840   -0.7610   -0.0250 c         1 MOL      0.454187
     44 O6          3.7440   -1.0430   -1.2070 o         1 MOL     -0.419545
     45 C15         2.2090   -1.4530    1.9160 c3        1 MOL     -0.034767
     46 C16         0.9210   -1.6790    1.1940 c         1 MOL      0.655005
     47 O7          0.8000   -1.2440    0.0550 o         1 MOL     -0.682811
     48 O8          0.0010   -2.2710    1.8470 o         1 MOL     -0.682811
     49 H21         2.5420   -3.3970    0.0310 hn        1 MOL      0.386187
     50 H22         4.3200   -1.6990    1.7680 h1        1 MOL      0.077171
     51 H23         2.3240   -0.4460    2.3120 hc        1 MOL      0.007435
     52 H24         2.1920   -2.1600    2.7520 hc        1 MOL      0.007435
     53 N5          4.0660    0.4670    0.4970 n         1 MOL     -0.534834
     54 C17         4.2660    1.7090   -0.2400 c3        1 MOL      0.031317
     55 C18         3.0470    2.3070   -0.8760 c         1 MOL      0.777583
     56 O9          1.9720    1.7710   -0.8570 o         1 MOL     -0.704204
     57 H25         4.3550    0.5420    1.4660 hn        1 MOL      0.309567
     58 H26         5.0310    1.5750   -1.0010 h1        1 MOL      0.047885
     59 H27         4.6840    2.4080    0.4850 h1        1 MOL      0.047885
     60 N6          3.2980    3.4050   -1.6620 n         1 MOL     -0.616493
     61 C19         2.2890    4.2980   -2.2950 c3        1 MOL      0.408734
     62 C20         2.8290    5.7350   -2.4330 c         1 MOL      0.364528
     63 O10         4.0570    5.8680   -2.4880 o         1 MOL     -0.511746
     64 C21         1.8700    3.7780   -3.6820 c3        1 MOL     -0.424376
     65 C22         1.4000    2.2980   -3.7560 c         1 MOL      0.778354
     66 O11         2.0460    1.4370   -4.3870 o         1 MOL     -0.686551
     67 O12         0.2400    2.0480   -3.2930 o         1 MOL     -0.686551
     68 H28         4.2450    3.7610   -1.6520 hn        1 MOL      0.292449
     69 H29         1.4890    4.3370   -1.5670 h1        1 MOL      0.015971
     70 H30         2.7840    3.9100   -4.2700 hc        1 MOL      0.099171
     71 H31         1.0270    4.3480   -4.0760 hc        1 MOL      0.099171
     72 N7          1.9770    6.7120   -2.5690 n         1 MOL     -0.374420
     73 C23         0.4770    6.6820   -2.4870 c3        1 MOL     -0.106370
     74 C24        -0.1130    6.0800   -1.2210 c         1 MOL      0.505061
     75 O13         0.4520    6.0760   -0.1460 o         1 MOL     -0.431165
     76 H32         2.5370    7.5550   -2.6230 hn        1 MOL      0.294760
     77 H33         0.0580    6.2780   -3.3980 h1        1 MOL      0.102793
     78 H34         0.0870    7.7020   -2.5400 h1        1 MOL      0.102793
     79 N8         -1.3480    5.6570   -1.3240 n         1 MOL     -0.513827
     80 C25        -2.1830    5.1620   -0.2020 c3        1 MOL      0.142478
     81 C26        -1.5110    3.9400    0.4040 c         1 MOL      0.420692
     82 O14        -0.8670    3.0850   -0.2150 o         1 MOL     -0.659039
     83 C27        -3.6070    4.6820   -0.6310 c3        1 MOL      0.135367
     84 C28        -4.4650    4.0390    0.4610 c3        1 MOL     -0.184139
     85 O15        -3.5250    3.7230   -1.7260 oh        1 MOL     -0.567372
     86 H35        -1.8210    5.6810   -2.2170 hn        1 MOL      0.286178
     87 H36        -2.2270    5.9700    0.5270 h1        1 MOL      0.070167
     88 H37        -4.0490    5.6400   -0.9270 h1        1 MOL      0.041932
     89 H38        -3.3860    4.2000   -2.5420 ho        1 MOL      0.416487
     90 H39        -3.9150    3.2460    0.9690 hc        1 MOL      0.067774
     91 H40        -4.6830    4.7970    1.2220 hc        1 MOL      0.067774
     92 H41        -5.3710    3.5750    0.0660 hc        1 MOL      0.067774
     93 N9         -1.5840    3.9080    1.7200 n         1 MOL     -0.358103
     94 C29        -0.8220    2.9910    2.6030 c3        1 MOL     -0.142707
     95 C30        -1.4070    1.5630    2.2460 c         1 MOL      0.318912
     96 O16        -0.9770    0.9630    1.3010 o         1 MOL     -0.380709
     97 C31         0.6710    3.2390    2.4490 c3        1 MOL     -0.008919
     98 C32         1.2860    4.6220    2.7780 c3        1 MOL      0.031075
     99 C33         1.3560    2.2000    3.3900 c3        1 MOL     -0.408857
    100 C34         2.7090    4.7650    2.2560 c3        1 MOL     -0.180063
    101 H42        -2.0900    4.5940    2.2700 hn        1 MOL      0.281306
    102 H43        -1.0790    3.2470    3.6310 h1        1 MOL      0.102461
    103 H44         0.9670    3.0940    1.4160 hc        1 MOL      0.187405
    104 H45         1.3180    4.8650    3.8350 hc        1 MOL      0.007125
    105 H46         0.6980    5.3780    2.2650 hc        1 MOL      0.007125
    106 H47         1.4200    2.5200    4.4330 hc        1 MOL      0.115409
    107 H48         0.7780    1.2700    3.3790 hc        1 MOL      0.115409
    108 H49         2.3870    1.9510    3.1460 hc        1 MOL      0.115409
    109 H50         2.9190    5.8350    2.2040 hc        1 MOL      0.049356
    110 H51         3.3840    4.2930    2.9770 hc        1 MOL      0.049356
    111 H52         2.8350    4.3360    1.2690 hc        1 MOL      0.049356
    112 N10        -2.3090    1.0380    3.1160 n         1 MOL     -0.179144
    113 C35        -2.7780   -0.4220    3.0170 c3        1 MOL     -0.109529
    114 C36        -4.3060   -0.5520    2.8000 c         1 MOL      0.532039
    115 O17        -4.8060   -1.7140    2.7300 o         1 MOL     -0.564010
    116 C37        -2.1800   -1.2800    4.0870 c3        1 MOL      0.372811
    117 C38        -2.7570   -1.0520    5.4490 c3        1 MOL     -0.232031
    118 O18        -0.7730   -1.2270    4.1830 oh        1 MOL     -0.631229
    119 H53        -2.5370    1.5460    3.9520 hn        1 MOL      0.238842
    120 H54        -2.3180   -0.7880    2.0950 h1        1 MOL      0.114406
    121 H55        -2.4340   -2.3130    3.8200 h1        1 MOL      0.026601
    122 H56        -0.4370   -1.6060    3.3700 ho        1 MOL      0.378568
    123 H57        -2.2300   -1.6610    6.1830 hc        1 MOL      0.047304
    124 H58        -2.7400   -0.0020    5.7350 hc        1 MOL      0.047304
    125 H59        -3.7910   -1.4110    5.4090 hc        1 MOL      0.047304
    126 N11        -5.0300    0.5360    2.7630 n         1 MOL     -0.288069
    127 C39        -6.5070    0.4870    2.5420 c3        1 MOL      0.082470
    128 C40        -6.9110   -0.0400    1.1610 c         1 MOL      0.484813
    129 O19        -7.3470    0.7520    0.3100 o         1 MOL     -0.511165
    130 C41        -7.1910    1.7980    2.8270 c3        1 MOL      0.455870
    131 C42        -8.6460    1.4030    3.3750 c3        1 MOL     -0.498014
    132 O20        -6.5710    2.5690    3.8490 oh        1 MOL     -0.666762
    133 H60        -4.6220    1.4390    3.0020 hn        1 MOL      0.169788
    134 H61        -6.9210   -0.2380    3.2410 h1        1 MOL      0.031088
    135 H62        -7.2270    2.4500    1.9510 h1        1 MOL     -0.031746
    136 H63        -6.9670    3.4350    3.9300 ho        1 MOL      0.425000
    137 H64        -9.2180    2.3240    3.5400 hc        1 MOL      0.116488
    138 H65        -9.2300    0.7150    2.7720 hc        1 MOL      0.116488
    139 H66        -8.7070    0.8020    4.2800 hc        1 MOL      0.116488
    140 N12        -6.8600   -1.3740    0.9180 n         1 MOL     -0.495459
    141 C43        -6.8380   -2.0540   -0.3910 c3        1 MOL      0.016434
    142 C44        -5.4960   -1.9810   -1.0700 c         1 MOL      0.644659
    143 O21        -5.0700   -0.8350   -1.2990 o         1 MOL     -0.510866
    144 C45        -7.9710   -1.6370   -1.2830 c3        1 MOL     -0.244832
    145 C46        -9.3140   -2.1140   -0.6920 c3        1 MOL      0.094262
    146 C47       -10.5280   -1.6630   -1.5830 c3        1 MOL      0.028149
    147 C48       -11.8380   -2.3400   -1.0350 c3        1 MOL     -0.053858
    148 N13       -12.1880   -1.9820    0.3640 n4        1 MOL     -0.180213
    149 H67        -6.5030   -1.9390    1.6780 hn        1 MOL      0.300044
    150 H68        -7.0200   -3.1080   -0.2230 h1        1 MOL      0.051383
    151 H69        -7.7510   -2.1560   -2.2260 hc        1 MOL      0.109166
    152 H70        -7.9070   -0.5930   -1.5950 hc        1 MOL      0.109166
    153 H71        -9.4170   -1.6610    0.2880 hc        1 MOL     -0.008110
    154 H72        -9.3290   -3.2060   -0.6650 hc        1 MOL     -0.008110
    155 H73       -10.3170   -1.9110   -2.6230 hc        1 MOL      0.034563
    156 H74       -10.6170   -0.5780   -1.5550 hc        1 MOL      0.034563
    157 H75       -11.8260   -3.4050   -1.2450 hx        1 MOL      0.085855
    158 H76       -12.5370   -1.9400   -1.7730 hx        1 MOL      0.085855
    159 H77       -11.6520   -2.6150    0.9520 hn        1 MOL      0.216734
    160 H78       -12.0910   -1.0140    0.6250 hn        1 MOL      0.216734
    161 H79       -13.1710   -2.1500    0.4570 hn        1 MOL      0.216734
    162 N14        -4.7860   -3.0770   -1.4120 n         1 MOL     -0.537191
    163 C49        -3.4880   -3.1270   -2.0570 c3        1 MOL      0.040148
    164 C50        -2.3940   -2.7470   -1.0720 c         1 MOL      0.652903
    165 O22        -1.7030   -1.7820   -1.2460 o         1 MOL     -0.676945
    166 C51        -3.3490   -4.4760   -2.6650 c3        1 MOL      0.062064
    167 C52        -4.3160   -5.0020   -3.7640 c3        1 MOL     -0.129447
    168 C53        -4.0120   -6.4040   -4.3160 c         1 MOL      0.678004
    169 O23        -4.7260   -7.3530   -3.8920 o         1 MOL     -0.626595
    170 O24        -3.1220   -6.6520   -5.1810 o         1 MOL     -0.626595
    171 H80        -5.1900   -3.9690   -1.1640 hn        1 MOL      0.326988
    172 H81        -3.3990   -2.4100   -2.8690 h1        1 MOL      0.090992
    173 H82        -3.4170   -5.2160   -1.8620 hc        1 MOL      0.013292
    174 H83        -2.3420   -4.6000   -3.0680 hc        1 MOL      0.013292
    175 H84        -4.2700   -4.3140   -4.6090 hc        1 MOL     -0.014327
    176 H85        -5.3230   -5.1310   -3.3610 hc        1 MOL     -0.014327
    177 N15        -2.1200   -3.4360    0.0010 n         1 MOL     -0.462411
    178 C54        -2.6570   -4.6360    0.5990 c3        1 MOL     -0.076309
    179 H86        -3.4520   -5.0310   -0.0330 h1        1 MOL      0.054996
    180 H87        -1.8670   -5.3800    0.6960 h1        1 MOL      0.054996
    181 H88        -3.0600   -4.4020    1.5840 h1        1 MOL      0.054996
    182 H89        -1.2960   -3.1280    0.5090 hn        1 MOL      0.391473
    183 Ca1        -0.4070    0.6080   -1.2080 Ca        1 MOL      1.810838
    184 O25        -3.1030    1.1040   -0.8600 oh        1 MOL     -0.898325
    185 H90        -3.3720    1.9610   -1.1780 ho        1 MOL      0.425951
    186 H91        -3.8100    0.5130   -1.1100 ho        1 MOL      0.425951
    187 O26         1.5010   -0.5560   -2.7120 oh        1 MOL     -0.898325
    188 H92         1.9210   -0.1980   -3.4990 ho        1 MOL      0.425951
    189 H93         2.2270   -0.7240   -2.1090 ho        1 MOL      0.425951
    190 O27        -1.4280   -0.2470   -3.5640 oh        1 MOL     -0.898325
    191 H94        -1.4280   -1.2020   -3.5830 ho        1 MOL      0.425951
    192 H95        -0.8090    0.0080   -4.2420 ho        1 MOL      0.425951
@<TRIPOS>BOND
     1    1    2 1   
     2    1    4 1   
     3    1    5 1   
     4    1    6 1   
     5    2    3 2   
     6    2    7 1   
     7    7    8 1   
     8    7   15 1   
     9    8    9 1   
    10    8   11 1   
    11    8   16 1   
    12    9   10 2   
    13    9   19 1   
    14   11   12 1   
    15   11   17 1   
    16   11   18 1   
    17   12   13 1   
    18   12   14 1   
    19   19   20 1   
    20   19   28 1   
    21   20   21 1   
    22   20   23 1   
    23   20   29 1   
    24   21   22 2   
    25   21   41 1   
    26   23   24 1   
    27   23   30 1   
    28   23   31 1   
    29   24   25 1   
    30   24   32 1   
    31   24   33 1   
    32   25   26 1   
    33   25   34 1   
    34   25   35 1   
    35   26   27 1   
    36   26   36 1   
    37   26   37 1   
    38   27   38 1   
    39   27   39 1   
    40   27   40 1   
    41   41   42 1   
    42   41   49 1   
    43   42   43 1   
    44   42   45 1   
    45   42   50 1   
    46   43   44 2   
    47   43   53 1   
    48   45   46 1   
    49   45   51 1   
    50   45   52 1   
    51   46   47 1   
    52   46   48 1   
    53   53   54 1   
    54   53   57 1   
    55   54   55 1   
    56   54   58 1   
    57   54   59 1   
    58   55   56 2   
    59   55   60 1   
    60   60   61 1   
    61   60   68 1   
    62   61   62 1   
    63   61   64 1   
    64   61   69 1   
    65   62   63 2   
    66   62   72 1   
    67   64   65 1   
    68   64   70 1   
    69   64   71 1   
    70   65   66 1   
    71   65   67 1   
    72   72   73 1   
    73   72   76 1   
    74   73   74 1   
    75   73   77 1   
    76   73   78 1   
    77   74   75 2   
    78   74   79 1   
    79   79   80 1   
    80   79   86 1   
    81   80   81 1   
    82   80   83 1   
    83   80   87 1   
    84   81   82 2   
    85   81   93 1   
    86   83   84 1   
    87   83   85 1   
    88   83   88 1   
    89   84   90 1   
    90   84   91 1   
    91   84   92 1   
    92   85   89 1   
    93   93   94 1   
    94   93  101 1   
    95   94   95 1   
    96   94   97 1   
    97   94  102 1   
    98   95   96 2   
    99   95  112 1   
   100   97   98 1   
   101   97   99 1   
   102   97  103 1   
   103   98  100 1   
   104   98  104 1   
   105   98  105 1   
   106   99  106 1   
   107   99  107 1   
   108   99  108 1   
   109  100  109 1   
   110  100  110 1   
   111  100  111 1   
   112  112  113 1   
   113  112  119 1   
   114  113  114 1   
   115  113  116 1   
   116  113  120 1   
   117  114  115 2   
   118  114  126 1   
   119  116  117 1   
   120  116  118 1   
   121  116  121 1   
   122  117  123 1   
   123  117  124 1   
   124  117  125 1   
   125  118  122 1   
   126  126  127 1   
   127  126  133 1   
   128  127  128 1   
   129  127  130 1   
   130  127  134 1   
   131  128  129 2   
   132  128  140 1   
   133  130  131 1   
   134  130  132 1   
   135  130  135 1   
   136  131  137 1   
   137  131  138 1   
   138  131  139 1   
   139  132  136 1   
   140  140  141 1   
   141  140  149 1   
   142  141  142 1   
   143  141  144 1   
   144  141  150 1   
   145  142  143 2   
   146  142  162 1   
   147  144  145 1   
   148  144  151 1   
   149  144  152 1   
   150  145  146 1   
   151  145  153 1   
   152  145  154 1   
   153  146  147 1   
   154  146  155 1   
   155  146  156 1   
   156  147  148 1   
   157  147  157 1   
   158  147  158 1   
   159  148  159 1   
   160  148  160 1   
   161  148  161 1   
   162  162  163 1   
   163  162  171 1   
   164  163  164 1   
   165  163  166 1   
   166  163  172 1   
   167  164  165 2   
   168  164  177 1   
   169  166  167 1   
   170  166  173 1   
   171  166  174 1   
   172  167  168 1   
   173  167  175 1   
   174  167  176 1   
   175  168  169 1   
   176  168  170 1   
   177  177  178 1   
   178  177  182 1   
   179  178  179 1   
   180  178  180 1   
   181  178  181 1   
   182  184  185 1   
   183  184  186 1   
   184  187  188 1   
   185  187  189 1   
   186  190  191 1   
   187  190  192 1   
@<TRIPOS>SUBSTRUCTURE
     1 MOL         1 TEMP              0 ****  ****    0 ROOT
