@<TRIPOS>MOLECULE
MOL
  181   177     1     0     0
SMALL
resp


@<TRIPOS>ATOM
      1 C1        -10.2720   -6.3170   -2.9010 c3        1 MOL     -0.287814
      2 C2         -9.3450   -5.7480   -1.7630 c         1 MOL      0.704686
      3 O1         -8.6310   -6.5430   -1.1190 o         1 MOL     -0.601274
      4 H1        -10.0610   -5.7970   -3.8350 hc        1 MOL      0.065482
      5 H2        -10.0790   -7.3820   -3.0280 hc        1 MOL      0.065482
      6 H3        -11.3160   -6.1660   -2.6290 hc        1 MOL      0.065482
      7 N1         -9.4030   -4.5300   -1.3270 n         1 MOL     -0.513805
      8 C3        -10.1470   -3.3490   -1.8140 c3        1 MOL      0.067227
      9 C4        -10.5670   -2.5080   -0.5980 c         1 MOL      0.476918
     10 O2        -10.5230   -2.9230    0.5460 o         1 MOL     -0.458103
     11 C5         -9.0740   -2.5760   -2.6920 c3        1 MOL     -0.202895
     12 C6         -7.9660   -1.9450   -1.8820 c         1 MOL      0.724461
     13 O3         -6.8470   -2.4730   -1.8520 o         1 MOL     -0.739720
     14 O4         -8.1790   -0.9150   -1.2510 o         1 MOL     -0.739720
     15 H4         -8.8900   -4.2640   -0.4990 hn        1 MOL      0.375838
     16 H5        -10.9710   -3.6680   -2.4520 h1        1 MOL      0.051586
     17 H6         -9.5770   -1.8110   -3.2750 hc        1 MOL      0.027099
     18 H7         -8.6070   -3.3590   -3.3070 hc        1 MOL      0.027099
     19 N2        -11.0570   -1.3080   -0.9180 n         1 MOL     -0.550806
     20 C7        -11.5760   -0.3250    0.0670 c3        1 MOL      0.420361
     21 C8        -10.7630   -0.0890    1.3590 c         1 MOL      0.391604
     22 O5        -11.3490    0.1480    2.3810 o         1 MOL     -0.537685
     23 C9        -13.1270   -0.5660    0.2400 c3        1 MOL     -0.401235
     24 H8        -11.0080   -1.1110   -1.9030 hn        1 MOL      0.297712
     25 H9        -11.4180    0.6490   -0.4080 h1        1 MOL     -0.020538
     26 H10       -13.3430   -1.4990    0.7590 hc        1 MOL      0.096349
     27 H11       -13.5250    0.3250    0.7370 hc        1 MOL      0.096349
     28 H12       -13.6420   -0.6020   -0.7210 hc        1 MOL      0.096349
     29 N3         -9.4240   -0.1540    1.2850 n         1 MOL     -0.300762
     30 C10        -8.5090    0.0210    2.3980 c3        1 MOL      0.254298
     31 C11        -7.3620    0.9950    2.0380 c         1 MOL      0.311674
     32 O6         -6.8350    0.9380    0.9100 o         1 MOL     -0.428309
     33 C12        -8.0340   -1.3850    2.8940 c3        1 MOL     -0.358713
     34 C13        -7.4270   -2.5020    1.9790 c         1 MOL      0.640617
     35 O7         -6.7790   -2.2230    0.9840 o         1 MOL     -0.659279
     36 O8         -7.4560   -3.7320    2.3350 o         1 MOL     -0.659279
     37 H13        -8.9980   -0.4510    0.4270 hn        1 MOL      0.167158
     38 H14        -9.0740    0.5350    3.1820 h1        1 MOL     -0.004253
     39 H15        -8.9330   -1.8450    3.2900 hc        1 MOL      0.099592
     40 H16        -7.4770   -1.1600    3.8120 hc        1 MOL      0.099592
     41 N4         -7.1960    2.0030    2.9430 n         1 MOL     -0.383201
     42 C14        -6.5730    3.2570    2.6370 c3        1 MOL     -0.116053
     43 C15        -5.1480    3.1820    2.0370 c         1 MOL      0.710452
     44 O9         -4.4050    2.3010    2.4160 o         1 MOL     -0.555371
     45 H17        -7.5530    2.0840    3.8830 hn        1 MOL      0.317705
     46 H18        -6.6520    4.0590    3.3620 h1        1 MOL      0.081606
     47 H19        -7.2230    3.6310    1.8480 h1        1 MOL      0.081606
     48 N5         -4.8410    4.0000    1.0320 n         1 MOL     -0.707365
     49 C16        -3.7290    3.7020    0.1270 c3        1 MOL      0.266977
     50 C17        -2.5260    4.5700    0.4630 c         1 MOL      0.637961
     51 O10        -2.5470    5.8330    0.5440 o         1 MOL     -0.585924
     52 C18        -4.2870    3.9150   -1.3230 c3        1 MOL     -0.342502
     53 C19        -5.4750    3.0480   -1.6350 c         1 MOL      0.757879
     54 N6         -6.4940    3.6620   -2.2160 n         1 MOL     -0.838105
     55 O11        -5.4960    1.8630   -1.2680 o         1 MOL     -0.626068
     56 H20        -5.5570    4.6170    0.6880 hn        1 MOL      0.327658
     57 H21        -3.5730    2.6350    0.2520 h1        1 MOL      0.003097
     58 H22        -3.6070    3.5950   -2.1120 hc        1 MOL      0.096907
     59 H23        -4.6080    4.9390   -1.4970 hc        1 MOL      0.096907
     60 H24        -6.5270    4.6460   -2.4340 hn        1 MOL      0.385702
     61 H25        -7.2590    3.0690   -2.5240 hn        1 MOL      0.385702
     62 N7         -1.3510    4.0050    0.2680 n         1 MOL     -0.583485
     63 C20        -0.0150    4.5860    0.0510 c3        1 MOL      0.253989
     64 C21         0.5520    5.4820    1.1920 c         1 MOL      0.534720
     65 O12         0.0230    5.3840    2.3130 o         1 MOL     -0.527556
     66 H26        -1.4510    3.0440   -0.0390 hn        1 MOL      0.303778
     67 H27        -0.1090    5.1740   -0.8650 h1        1 MOL      0.030035
     68 H28         0.6690    3.7510   -0.1240 h1        1 MOL      0.030035
     69 N8          1.5100    6.3490    0.9310 n         1 MOL     -0.356622
     70 C22         2.1200    6.7680   -0.4320 c3        1 MOL     -0.169108
     71 C23         3.0330    5.7380   -1.0870 c         1 MOL      0.350980
     72 O13         2.9190    5.5260   -2.2770 o         1 MOL     -0.517707
     73 C24         2.9870    8.1150   -0.2660 c3        1 MOL      0.336084
     74 C25         2.0840    9.2760    0.0830 c3        1 MOL     -0.375877
     75 O14         3.9520    7.9130    0.7360 oh        1 MOL     -0.606733
     76 H29         1.7770    7.0500    1.6180 hn        1 MOL      0.221638
     77 H30         1.3900    7.0250   -1.1970 h1        1 MOL      0.121014
     78 H31         3.5930    8.3380   -1.1450 h1        1 MOL      0.090975
     79 H32         3.4980    7.9080    1.5790 ho        1 MOL      0.396765
     80 H33         1.3250    9.2600   -0.6950 hc        1 MOL      0.092613
     81 H34         1.5720    9.1740    1.0360 hc        1 MOL      0.092613
     82 H35         2.5330   10.2660    0.0760 hc        1 MOL      0.092613
     83 N9          3.7920    5.0750   -0.2550 n         1 MOL     -0.270565
     84 C26         4.6730    3.9820   -0.6730 c3        1 MOL      0.002578
     85 C27         4.6130    2.8630    0.3890 c         1 MOL      0.609384
     86 O15         4.6190    3.1340    1.5710 o         1 MOL     -0.603130
     87 C28         6.1380    4.4860   -0.8780 c3        1 MOL      0.019418
     88 C29         6.2580    5.5780   -1.9280 c3        1 MOL      0.066926
     89 C30         7.1810    3.4170   -1.1810 c3        1 MOL     -0.050213
     90 C31         7.6330    6.3090   -2.0540 c3        1 MOL     -0.148233
     91 H36         3.5810    5.1900    0.7290 hn        1 MOL      0.207294
     92 H37         4.2920    3.5160   -1.5820 h1        1 MOL      0.139423
     93 H38         6.4740    4.8590    0.0830 hc        1 MOL      0.004048
     94 H39         5.5060    6.3260   -1.7030 hc        1 MOL      0.006778
     95 H40         6.0230    5.1440   -2.9100 hc        1 MOL      0.006778
     96 H41         6.8630    2.8950   -2.0780 hc        1 MOL      0.012833
     97 H42         8.1640    3.8040   -1.4460 hc        1 MOL      0.012833
     98 H43         7.2610    2.7590   -0.3140 hc        1 MOL      0.012833
     99 H44         8.0490    6.5780   -1.0910 hc        1 MOL      0.025247
    100 H45         8.3690    5.8410   -2.7180 hc        1 MOL      0.025247
    101 H46         7.5520    7.2620   -2.5730 hc        1 MOL      0.025247
    102 N10         4.5880    1.6070    0.0710 n         1 MOL     -0.418334
    103 C32         4.6430    0.8340   -1.2200 c3        1 MOL     -0.088044
    104 C33         5.8240   -0.1760   -1.3090 c         1 MOL      0.649085
    105 O16         6.3370   -0.2810   -2.4360 o         1 MOL     -0.557109
    106 C34         3.2770    0.0780   -1.3240 c3        1 MOL     -0.092988
    107 C35         2.1450    1.1010   -1.5970 c         1 MOL      0.755369
    108 O17         2.0550    1.5640   -2.7800 o         1 MOL     -0.733756
    109 O18         1.3570    1.3410   -0.7080 o         1 MOL     -0.733756
    110 H47         4.5110    0.9970    0.8760 hn        1 MOL      0.307700
    111 H48         4.7840    1.5210   -2.0570 h1        1 MOL      0.054416
    112 H49         3.1150   -0.3660   -0.3430 hc        1 MOL      0.021689
    113 H50         3.2920   -0.7330   -2.0500 hc        1 MOL      0.021689
    114 N11         6.3060   -0.6560   -0.1670 n         1 MOL     -0.605115
    115 C36         7.7230   -1.1180   -0.0380 c3        1 MOL      0.281641
    116 C37         8.0310   -1.6800    1.3520 c         1 MOL      0.282483
    117 O19         7.4560   -1.0920    2.2410 o         1 MOL     -0.477849
    118 C38         8.7330    0.0440   -0.1420 c3        1 MOL     -0.334604
    119 C39        10.1290   -0.4430   -0.3320 ca        1 MOL      0.084839
    120 C40        11.0190   -0.5780    0.7740 ca        1 MOL     -0.139586
    121 C41        10.6280   -0.9360   -1.5480 ca        1 MOL     -0.139586
    122 C42        12.3120   -1.0020    0.6630 ca        1 MOL     -0.158615
    123 C43        11.9410   -1.3750   -1.6790 ca        1 MOL     -0.158615
    124 C44        12.7750   -1.3600   -0.5820 ca        1 MOL     -0.058497
    125 H51         5.7300   -0.6080    0.6670 hn        1 MOL      0.332585
    126 H52         7.8060   -1.8640   -0.8240 h1        1 MOL      0.046139
    127 H53         8.7570    0.6450    0.7700 hc        1 MOL      0.132792
    128 H54         8.6200    0.6210   -1.0620 hc        1 MOL      0.132792
    129 H55        10.7090   -0.1620    1.7250 ha        1 MOL      0.124652
    130 H56        10.0220   -1.0090   -2.4450 ha        1 MOL      0.124652
    131 H57        13.0210   -1.1250    1.4650 ha        1 MOL      0.113758
    132 H58        12.2640   -1.6040   -2.6810 ha        1 MOL      0.113758
    133 H59        13.7860   -1.6970   -0.7610 ha        1 MOL      0.070383
    134 N12         8.7750   -2.7480    1.6470 n         1 MOL     -0.012683
    135 C45         9.2980   -3.6980    0.6510 c3        1 MOL      0.275679
    136 C46         8.1470   -4.4500   -0.1490 c         1 MOL      0.252975
    137 O20         8.1130   -4.4300   -1.3810 o         1 MOL     -0.536688
    138 C47        10.1460   -4.7450    1.4220 c3        1 MOL     -0.176225
    139 C48        10.4510   -3.9840    2.7160 c3        1 MOL      0.180476
    140 C49         9.2130   -3.1620    2.9400 c3        1 MOL     -0.184931
    141 H60         9.9490   -3.1830   -0.0580 h1        1 MOL      0.001086
    142 H61         9.6580   -5.6850    1.6770 hc        1 MOL      0.040522
    143 H62        11.0460   -4.9230    0.8450 hc        1 MOL      0.040522
    144 H63        10.7410   -4.5780    3.5780 hc        1 MOL     -0.045782
    145 H64        11.2250   -3.2800    2.4110 hc        1 MOL     -0.045782
    146 H65         8.5300   -3.8500    3.4460 h1        1 MOL      0.082117
    147 H66         9.5080   -2.2970    3.5340 h1        1 MOL      0.082117
    148 N13         7.1760   -4.8960    0.5570 n         1 MOL     -0.245143
    149 C50         5.9790   -5.4880    0.0580 c3        1 MOL      0.146713
    150 C51         6.1630   -6.9980   -0.1300 c         1 MOL      0.400207
    151 O21         6.2370   -7.7510    0.8320 o         1 MOL     -0.566219
    152 C52         4.9160   -5.1820    1.1570 c3        1 MOL     -0.014515
    153 C53         4.3180   -3.7880    0.9610 c3        1 MOL     -0.217925
    154 C54         3.1990   -3.5840    1.9780 c         1 MOL      0.741047
    155 O22         3.2090   -2.5760    2.6890 o         1 MOL     -0.728836
    156 O23         2.3610   -4.5000    2.1240 o         1 MOL     -0.728836
    157 H67         7.3230   -5.0110    1.5460 hn        1 MOL      0.232214
    158 H68         5.5330   -5.1180   -0.8730 h1        1 MOL      0.123587
    159 H69         5.3640   -5.2370    2.1520 hc        1 MOL      0.018351
    160 H70         4.1270   -5.9270    1.0810 hc        1 MOL      0.018351
    161 H71         3.9560   -3.6760   -0.0620 hc        1 MOL      0.010973
    162 H72         5.0930   -3.0460    1.1530 hc        1 MOL      0.010973
    163 N14         6.1340   -7.4920   -1.3790 n         1 MOL     -0.337494
    164 C55         6.0140   -6.7550   -2.6860 c3        1 MOL     -0.089371
    165 H73         5.8100   -5.7020   -2.4920 h1        1 MOL      0.066835
    166 H74         6.9470   -6.8460   -3.2430 h1        1 MOL      0.066835
    167 H75         5.1990   -7.1810   -3.2710 h1        1 MOL      0.066835
    168 H76         6.1530   -8.5000   -1.4100 hn        1 MOL      0.255997
    169 Ca1        -5.4890   -0.7480   -0.5250 Ca        1 MOL      1.726447
    170 O24        -4.1250   -3.2940   -0.6110 oh        1 MOL     -0.779584
    171 H77        -4.6780   -3.7210    0.0380 ho        1 MOL      0.398006
    172 H78        -3.2460   -3.6360   -0.4510 ho        1 MOL      0.398006
    173 O25        -2.9180   -0.1670   -0.8780 oh        1 MOL     -0.779584
    174 H79        -2.3320   -0.4160   -0.1740 ho        1 MOL      0.398006
    175 H80        -2.4220    0.4800   -1.3920 ho        1 MOL      0.398006
    176 O26        -5.1160   -0.3030   -3.1370 oh        1 MOL     -0.779584
    177 H81        -4.5070   -0.7480   -3.7240 ho        1 MOL      0.398006
    178 H82        -5.8550   -0.0670   -3.6890 ho        1 MOL      0.398006
    179 O27        -4.0910   -0.6010    1.7860 oh        1 MOL     -0.779584
    180 H83        -3.8210    0.2050    2.2300 ho        1 MOL      0.398006
    181 H84        -3.9410   -1.2900    2.4270 ho        1 MOL      0.398006
@<TRIPOS>BOND
     1    1    2 1   
     2    1    4 1   
     3    1    5 1   
     4    1    6 1   
     5    2    3 2   
     6    2    7 1   
     7    7    8 1   
     8    7   15 1   
     9    8    9 1   
    10    8   11 1   
    11    8   16 1   
    12    9   10 2   
    13    9   19 1   
    14   11   12 1   
    15   11   17 1   
    16   11   18 1   
    17   12   13 1   
    18   12   14 1   
    19   19   20 1   
    20   19   24 1   
    21   20   21 1   
    22   20   23 1   
    23   20   25 1   
    24   21   22 2   
    25   21   29 1   
    26   23   26 1   
    27   23   27 1   
    28   23   28 1   
    29   29   30 1   
    30   29   37 1   
    31   30   31 1   
    32   30   33 1   
    33   30   38 1   
    34   31   32 2   
    35   31   41 1   
    36   33   34 1   
    37   33   39 1   
    38   33   40 1   
    39   34   35 1   
    40   34   36 1   
    41   41   42 1   
    42   41   45 1   
    43   42   43 1   
    44   42   46 1   
    45   42   47 1   
    46   43   44 2   
    47   43   48 1   
    48   48   49 1   
    49   48   56 1   
    50   49   50 1   
    51   49   52 1   
    52   49   57 1   
    53   50   51 2   
    54   50   62 1   
    55   52   53 1   
    56   52   58 1   
    57   52   59 1   
    58   53   54 1   
    59   53   55 2   
    60   54   60 1   
    61   54   61 1   
    62   62   63 1   
    63   62   66 1   
    64   63   64 1   
    65   63   67 1   
    66   63   68 1   
    67   64   65 2   
    68   64   69 1   
    69   69   70 1   
    70   69   76 1   
    71   70   71 1   
    72   70   73 1   
    73   70   77 1   
    74   71   72 2   
    75   71   83 1   
    76   73   74 1   
    77   73   75 1   
    78   73   78 1   
    79   74   80 1   
    80   74   81 1   
    81   74   82 1   
    82   75   79 1   
    83   83   84 1   
    84   83   91 1   
    85   84   85 1   
    86   84   87 1   
    87   84   92 1   
    88   85   86 2   
    89   85  102 1   
    90   87   88 1   
    91   87   89 1   
    92   87   93 1   
    93   88   90 1   
    94   88   94 1   
    95   88   95 1   
    96   89   96 1   
    97   89   97 1   
    98   89   98 1   
    99   90   99 1   
   100   90  100 1   
   101   90  101 1   
   102  102  103 1   
   103  102  110 1   
   104  103  104 1   
   105  103  106 1   
   106  103  111 1   
   107  104  105 2   
   108  104  114 1   
   109  106  107 1   
   110  106  112 1   
   111  106  113 1   
   112  107  108 1   
   113  107  109 1   
   114  114  115 1   
   115  114  125 1   
   116  115  116 1   
   117  115  118 1   
   118  115  126 1   
   119  116  117 2   
   120  116  134 1   
   121  118  119 1   
   122  118  127 1   
   123  118  128 1   
   124  119  120 ar  
   125  119  121 ar  
   126  120  122 ar  
   127  120  129 1   
   128  121  123 ar  
   129  121  130 1   
   130  122  124 ar  
   131  122  131 1   
   132  123  124 ar  
   133  123  132 1   
   134  124  133 1   
   135  134  135 1   
   136  134  140 1   
   137  135  136 1   
   138  135  138 1   
   139  135  141 1   
   140  136  137 2   
   141  136  148 1   
   142  138  139 1   
   143  138  142 1   
   144  138  143 1   
   145  139  140 1   
   146  139  144 1   
   147  139  145 1   
   148  140  146 1   
   149  140  147 1   
   150  148  149 1   
   151  148  157 1   
   152  149  150 1   
   153  149  152 1   
   154  149  158 1   
   155  150  151 2   
   156  150  163 1   
   157  152  153 1   
   158  152  159 1   
   159  152  160 1   
   160  153  154 1   
   161  153  161 1   
   162  153  162 1   
   163  154  155 1   
   164  154  156 1   
   165  163  164 1   
   166  163  168 1   
   167  164  165 1   
   168  164  166 1   
   169  164  167 1   
   170  170  171 1   
   171  170  172 1   
   172  173  174 1   
   173  173  175 1   
   174  176  177 1   
   175  176  178 1   
   176  179  180 1   
   177  179  181 1   
@<TRIPOS>SUBSTRUCTURE
     1 MOL         1 TEMP              0 ****  ****    0 ROOT
