@<TRIPOS>MOLECULE
MOL
  181   177     1     0     0
SMALL
resp


@<TRIPOS>ATOM
      1 C1        -10.7480   -6.4470   -1.9360 c3        1 MOL     -0.354975
      2 C2         -9.8060   -5.9450   -0.8270 c         1 MOL      0.633453
      3 O1         -9.8570   -6.3010    0.3400 o         1 MOL     -0.618603
      4 H1        -11.7750   -6.1740   -1.6920 hc        1 MOL      0.100858
      5 H2        -10.4680   -5.9900   -2.8860 hc        1 MOL      0.100858
      6 H3        -10.6710   -7.5310   -2.0170 hc        1 MOL      0.100858
      7 N1         -9.0080   -4.8540   -1.0600 n         1 MOL     -0.198284
      8 C3         -8.7770   -4.0780   -2.2520 c3        1 MOL     -0.471035
      9 C4         -8.4260   -2.6140   -1.9770 c         1 MOL      0.803159
     10 O2         -7.7270   -2.2320   -1.0730 o         1 MOL     -0.535865
     11 C5         -7.7070   -4.7860   -3.1390 c3        1 MOL      0.096386
     12 C6         -6.4100   -5.0730   -2.4380 c         1 MOL      0.522219
     13 O3         -5.6330   -5.8100   -3.1280 o         1 MOL     -0.660949
     14 O4         -6.0770   -4.5950   -1.3340 o         1 MOL     -0.660949
     15 H4         -8.5530   -4.5500   -0.2120 hn        1 MOL      0.157229
     16 H5         -9.6150   -4.0960   -2.9480 h1        1 MOL      0.116605
     17 H6         -7.5060   -4.2040   -4.0430 hc        1 MOL      0.025834
     18 H7         -8.1000   -5.7030   -3.5720 hc        1 MOL      0.025834
     19 N2         -8.8740   -1.6440   -2.7550 n         1 MOL     -0.602506
     20 C7         -8.2120   -0.3370   -2.7490 c3        1 MOL      0.053638
     21 C8         -8.4550    0.4580   -1.4220 c         1 MOL      0.722612
     22 O5         -9.5170    0.4830   -0.8400 o         1 MOL     -0.571893
     23 C9         -8.7900    0.4140   -3.9960 c3        1 MOL     -0.222554
     24 H8         -9.6230   -1.8090   -3.4100 hn        1 MOL      0.317496
     25 H9         -7.1520   -0.4300   -2.9600 h1        1 MOL      0.112031
     26 H10        -8.2770    1.3510   -4.2150 hc        1 MOL      0.066412
     27 H11        -8.6100   -0.1510   -4.9070 hc        1 MOL      0.066412
     28 H12        -9.8600    0.5830   -3.8680 hc        1 MOL      0.066412
     29 N3         -7.3920    1.0990   -0.9300 n         1 MOL     -0.625248
     30 C10        -7.2410    1.6010    0.4580 c3        1 MOL      0.143255
     31 C11        -7.1420    3.1460    0.4670 c         1 MOL      0.484816
     32 O6         -6.7050    3.7770   -0.4920 o         1 MOL     -0.484932
     33 C12        -5.9770    0.9450    1.0500 c3        1 MOL     -0.101628
     34 C13        -5.9960   -0.5660    0.9740 c         1 MOL      0.819527
     35 O7         -5.2370   -1.1320    0.2200 o         1 MOL     -0.777607
     36 O8         -6.7120   -1.1680    1.8080 o         1 MOL     -0.777607
     37 H13        -6.5220    1.0220   -1.4450 hn        1 MOL      0.300078
     38 H14        -8.0170    1.3380    1.1700 h1        1 MOL      0.035674
     39 H15        -5.9480    1.3130    2.0730 hc        1 MOL      0.012994
     40 H16        -5.0750    1.3570    0.6020 hc        1 MOL      0.012994
     41 N4         -7.5060    3.8670    1.5940 n         1 MOL     -0.461974
     42 C14        -7.1910    5.2910    1.7540 c3        1 MOL     -0.143437
     43 C15        -5.7450    5.4590    2.1920 c         1 MOL      0.452754
     44 O9         -5.1510    6.5520    2.0270 o         1 MOL     -0.513273
     45 H17        -7.6760    3.3300    2.4450 hn        1 MOL      0.277549
     46 H18        -7.9450    5.6430    2.4640 h1        1 MOL      0.133598
     47 H19        -7.4580    5.8480    0.8600 h1        1 MOL      0.133598
     48 N5         -5.0350    4.3650    2.5250 n         1 MOL     -0.396095
     49 C16        -3.7330    4.5030    3.0900 c3        1 MOL      0.007949
     50 C17        -2.6180    4.7340    2.0830 c         1 MOL      0.623563
     51 O10        -1.4940    4.9260    2.4960 o         1 MOL     -0.523768
     52 C18        -3.4830    3.3780    4.0680 c3        1 MOL     -0.321533
     53 C19        -3.0950    2.0200    3.4850 c         1 MOL      0.735292
     54 N6         -2.5190    1.2320    4.3090 n         1 MOL     -0.830849
     55 O11        -3.3360    1.6940    2.3620 o         1 MOL     -0.539825
     56 H20        -5.4780    3.4540    2.5120 hn        1 MOL      0.287631
     57 H21        -3.7350    5.4630    3.6040 h1        1 MOL      0.124039
     58 H22        -4.3260    3.1110    4.7200 hc        1 MOL      0.083300
     59 H23        -2.7170    3.8330    4.6910 hc        1 MOL      0.083300
     60 H24        -2.5830    1.4970    5.2780 hn        1 MOL      0.367604
     61 H25        -2.2980    0.2870    4.0190 hn        1 MOL      0.367604
     62 N7         -2.8120    4.7490    0.7550 n         1 MOL     -0.516530
     63 C20        -1.8630    4.8660   -0.2980 c3        1 MOL      0.070402
     64 C21        -1.2490    6.2420   -0.3070 c         1 MOL      0.633210
     65 O12        -1.7820    7.1540    0.3730 o         1 MOL     -0.555825
     66 H26        -3.7830    4.7300    0.4820 hn        1 MOL      0.321065
     67 H27        -2.3910    4.8790   -1.2530 h1        1 MOL      0.067405
     68 H28        -1.0760    4.1100   -0.2270 h1        1 MOL      0.067405
     69 N8         -0.1780    6.4610   -1.0700 n         1 MOL     -0.581733
     70 C22         0.2990    5.4290   -2.0810 c3        1 MOL     -0.046785
     71 C23         1.4500    4.6290   -1.4130 c         1 MOL      0.506762
     72 O13         2.5100    5.1150   -1.0090 o         1 MOL     -0.507480
     73 C24         0.7960    6.1570   -3.3420 c3        1 MOL      0.349493
     74 C25         1.3150    5.2170   -4.3850 c3        1 MOL     -0.410573
     75 O14        -0.3170    6.8210   -3.8550 oh        1 MOL     -0.593553
     76 H29         0.1330    7.4120   -1.0940 hn        1 MOL      0.322438
     77 H30        -0.5660    4.8430   -2.4010 h1        1 MOL      0.077250
     78 H31         1.4960    6.9500   -3.0710 h1        1 MOL      0.028780
     79 H32        -0.4710    7.5350   -3.2280 ho        1 MOL      0.354378
     80 H33         1.6490    5.8710   -5.1820 hc        1 MOL      0.122731
     81 H34         2.1250    4.5940   -4.0280 hc        1 MOL      0.122731
     82 H35         0.6250    4.4970   -4.8100 hc        1 MOL      0.122731
     83 N9          1.1900    3.2780   -1.2690 n         1 MOL     -0.300107
     84 C26         2.0710    2.2880   -0.6030 c3        1 MOL      0.018624
     85 C27         2.2980    1.1690   -1.5820 c         1 MOL      0.409978
     86 O15         1.3420    0.6000   -2.1260 o         1 MOL     -0.520698
     87 C28         1.5650    1.7500    0.7310 c3        1 MOL      0.038288
     88 C29         1.4650    2.8510    1.8020 c3        1 MOL      0.093997
     89 C30         2.3340    0.5790    1.3120 c3        1 MOL     -0.075933
     90 C31         0.7720    2.3380    3.0800 c3        1 MOL     -0.276055
     91 H36         0.3290    2.9100   -1.6420 hn        1 MOL      0.184367
     92 H37         3.0030    2.8240   -0.4010 h1        1 MOL      0.073195
     93 H38         0.5370    1.4360    0.5900 hc        1 MOL      0.030655
     94 H39         0.9300    3.6840    1.3330 hc        1 MOL      0.007876
     95 H40         2.4060    3.2670    2.1680 hc        1 MOL      0.007876
     96 H41         3.3330    0.8860    1.6430 hc        1 MOL      0.019259
     97 H42         1.9100    0.0540    2.1610 hc        1 MOL      0.019259
     98 H43         2.5470   -0.1630    0.5470 hc        1 MOL      0.019259
     99 H44         1.4710    1.6760    3.5960 hc        1 MOL      0.061303
    100 H45         0.4110    3.1230    3.7490 hc        1 MOL      0.061303
    101 H46        -0.1220    1.7780    2.8200 hc        1 MOL      0.061303
    102 N10         3.5910    0.8200   -1.8840 n         1 MOL     -0.441396
    103 C32         4.8400    1.3810   -1.3060 c3        1 MOL      0.199836
    104 C33         5.8980    0.2650   -1.2800 c         1 MOL      0.571453
    105 O16         5.9000   -0.6020   -2.1320 o         1 MOL     -0.545205
    106 C34         5.3900    2.6010   -2.1150 c3        1 MOL     -0.146761
    107 C35         6.6100    3.3280   -1.5040 c         1 MOL      0.685456
    108 O17         6.8520    3.1660   -0.2640 o         1 MOL     -0.707616
    109 O18         7.2920    4.0510   -2.2690 o         1 MOL     -0.707616
    110 H47         3.7010    0.1400   -2.6320 hn        1 MOL      0.297277
    111 H48         4.7870    1.5900   -0.2380 h1        1 MOL     -0.018579
    112 H49         4.5790    3.3070   -2.2830 hc        1 MOL      0.014386
    113 H50         5.6560    2.3610   -3.1400 hc        1 MOL      0.014386
    114 N11         6.8460    0.4160   -0.3200 n         1 MOL     -0.749430
    115 C36         8.1220   -0.2820   -0.4610 c3        1 MOL      0.557040
    116 C37         8.7450   -0.2960    0.9110 c         1 MOL      0.187049
    117 O19         8.7270    0.8280    1.5490 o         1 MOL     -0.493789
    118 C38         9.0970    0.3480   -1.4680 c3        1 MOL     -0.235261
    119 C39        10.3550   -0.4300   -1.7490 ca        1 MOL      0.081314
    120 C40        11.3720   -0.4130   -0.8120 ca        1 MOL     -0.170247
    121 C41        10.4990   -1.1730   -2.9570 ca        1 MOL     -0.170247
    122 C42        12.4720   -1.2830   -0.9920 ca        1 MOL     -0.100929
    123 C43        11.6590   -1.9370   -3.1800 ca        1 MOL     -0.100929
    124 C44        12.6590   -1.9820   -2.1600 ca        1 MOL     -0.163553
    125 H51         6.7660    1.2200    0.2940 hn        1 MOL      0.398361
    126 H52         7.9210   -1.3220   -0.7040 h1        1 MOL     -0.098929
    127 H53         9.4210    1.3310   -1.1410 hc        1 MOL      0.102414
    128 H54         8.6030    0.4680   -2.4410 hc        1 MOL      0.102414
    129 H55        11.4400    0.4020   -0.1090 ha        1 MOL      0.135073
    130 H56         9.7740   -1.0170   -3.7390 ha        1 MOL      0.135073
    131 H57        13.2710   -1.2060   -0.2610 ha        1 MOL      0.101201
    132 H58        11.7750   -2.5400   -4.0730 ha        1 MOL      0.101201
    133 H59        13.5830   -2.5340   -2.3110 ha        1 MOL      0.098364
    134 N12         9.4160   -1.3470    1.3490 n         1 MOL      0.081207
    135 C45         9.4820   -2.6920    0.6910 c3        1 MOL      0.061535
    136 C46         8.2050   -3.6020    0.8590 c         1 MOL      0.439366
    137 O20         8.1530   -4.7470    0.4390 o         1 MOL     -0.531859
    138 C47        10.7630   -3.2920    1.2140 c3        1 MOL     -0.148245
    139 C48        10.9000   -2.6860    2.6380 c3        1 MOL      0.051491
    140 C49        10.3810   -1.2280    2.3790 c3        1 MOL     -0.236845
    141 H60         9.6710   -2.5670   -0.3830 h1        1 MOL      0.096464
    142 H61        10.7650   -4.3800    1.1690 hc        1 MOL      0.038279
    143 H62        11.5980   -2.9330    0.5930 hc        1 MOL      0.038279
    144 H63        10.2810   -3.2060    3.3700 hc        1 MOL      0.006463
    145 H64        11.9050   -2.7090    3.0530 hc        1 MOL      0.006463
    146 H65         9.9910   -0.9380    3.3550 h1        1 MOL      0.086760
    147 H66        11.3030   -0.7390    2.0610 h1        1 MOL      0.086760
    148 N13         7.1590   -3.0380    1.4760 n         1 MOL     -0.409839
    149 C50         5.7440   -3.5520    1.5360 c3        1 MOL      0.096914
    150 C51         5.1510   -3.0050    2.8180 c         1 MOL      0.379396
    151 O21         5.6700   -2.0240    3.3480 o         1 MOL     -0.551882
    152 C52         5.0090   -2.9830    0.3130 c3        1 MOL     -0.042005
    153 C53         3.5910   -3.3550   -0.1130 c3        1 MOL     -0.201504
    154 C54         3.6030   -4.5610   -0.9850 c         1 MOL      0.725811
    155 O22         3.4530   -5.6600   -0.4110 o         1 MOL     -0.718703
    156 O23         3.8790   -4.4580   -2.1810 o         1 MOL     -0.718703
    157 H67         7.3900   -2.2000    1.9930 hn        1 MOL      0.274851
    158 H68         5.7550   -4.6380    1.5910 h1        1 MOL      0.113494
    159 H69         5.7250   -3.1060   -0.4970 hc        1 MOL      0.095641
    160 H70         5.0580   -1.8960    0.3930 hc        1 MOL      0.095641
    161 H71         3.1520   -2.5650   -0.7060 hc        1 MOL      0.015986
    162 H72         2.9830   -3.4410    0.7870 hc        1 MOL      0.015986
    163 N14         4.1760   -3.6480    3.4810 n         1 MOL     -0.292988
    164 C55         3.6920   -5.0110    3.2560 c3        1 MOL     -0.108458
    165 H73         2.7840   -4.9780    2.6520 h1        1 MOL      0.060910
    166 H74         4.4550   -5.5870    2.7340 h1        1 MOL      0.060910
    167 H75         3.4730   -5.4820    4.2140 h1        1 MOL      0.060910
    168 H76         3.8870   -3.1950    4.3280 hn        1 MOL      0.252598
    169 Ca1        -5.5790   -3.5210    0.8900 Ca        1 MOL      1.773335
    170 O24        -3.5170   -2.5950    2.1890 oh        1 MOL     -0.897815
    171 H77        -2.9100   -2.3490    1.4950 ho        1 MOL      0.442118
    172 H78        -3.0010   -2.5380    2.9970 ho        1 MOL      0.442118
    173 O25        -3.2300   -3.6940   -0.4700 oh        1 MOL     -0.897815
    174 H79        -3.3890   -3.4010   -1.3740 ho        1 MOL      0.442118
    175 H80        -2.5640   -4.3770   -0.5520 ho        1 MOL      0.442118
    176 O26        -6.0080   -3.8240    3.4020 oh        1 MOL     -0.897815
    177 H81        -6.9080   -4.0720    3.6200 ho        1 MOL      0.442118
    178 H82        -5.6950   -3.3340    4.1600 ho        1 MOL      0.442118
    179 O27        -7.9770   -4.4140    1.6170 oh        1 MOL     -0.897815
    180 H83        -8.7790   -3.8850    1.7200 ho        1 MOL      0.442118
    181 H84        -8.1760   -5.2310    2.0910 ho        1 MOL      0.442118
@<TRIPOS>BOND
     1    1    2 1   
     2    1    4 1   
     3    1    5 1   
     4    1    6 1   
     5    2    3 2   
     6    2    7 1   
     7    7    8 1   
     8    7   15 1   
     9    8    9 1   
    10    8   11 1   
    11    8   16 1   
    12    9   10 2   
    13    9   19 1   
    14   11   12 1   
    15   11   17 1   
    16   11   18 1   
    17   12   13 1   
    18   12   14 1   
    19   19   20 1   
    20   19   24 1   
    21   20   21 1   
    22   20   23 1   
    23   20   25 1   
    24   21   22 2   
    25   21   29 1   
    26   23   26 1   
    27   23   27 1   
    28   23   28 1   
    29   29   30 1   
    30   29   37 1   
    31   30   31 1   
    32   30   33 1   
    33   30   38 1   
    34   31   32 2   
    35   31   41 1   
    36   33   34 1   
    37   33   39 1   
    38   33   40 1   
    39   34   35 1   
    40   34   36 1   
    41   41   42 1   
    42   41   45 1   
    43   42   43 1   
    44   42   46 1   
    45   42   47 1   
    46   43   44 2   
    47   43   48 1   
    48   48   49 1   
    49   48   56 1   
    50   49   50 1   
    51   49   52 1   
    52   49   57 1   
    53   50   51 2   
    54   50   62 1   
    55   52   53 1   
    56   52   58 1   
    57   52   59 1   
    58   53   54 1   
    59   53   55 2   
    60   54   60 1   
    61   54   61 1   
    62   62   63 1   
    63   62   66 1   
    64   63   64 1   
    65   63   67 1   
    66   63   68 1   
    67   64   65 2   
    68   64   69 1   
    69   69   70 1   
    70   69   76 1   
    71   70   71 1   
    72   70   73 1   
    73   70   77 1   
    74   71   72 2   
    75   71   83 1   
    76   73   74 1   
    77   73   75 1   
    78   73   78 1   
    79   74   80 1   
    80   74   81 1   
    81   74   82 1   
    82   75   79 1   
    83   83   84 1   
    84   83   91 1   
    85   84   85 1   
    86   84   87 1   
    87   84   92 1   
    88   85   86 2   
    89   85  102 1   
    90   87   88 1   
    91   87   89 1   
    92   87   93 1   
    93   88   90 1   
    94   88   94 1   
    95   88   95 1   
    96   89   96 1   
    97   89   97 1   
    98   89   98 1   
    99   90   99 1   
   100   90  100 1   
   101   90  101 1   
   102  102  103 1   
   103  102  110 1   
   104  103  104 1   
   105  103  106 1   
   106  103  111 1   
   107  104  105 2   
   108  104  114 1   
   109  106  107 1   
   110  106  112 1   
   111  106  113 1   
   112  107  108 1   
   113  107  109 1   
   114  114  115 1   
   115  114  125 1   
   116  115  116 1   
   117  115  118 1   
   118  115  126 1   
   119  116  117 2   
   120  116  134 1   
   121  118  119 1   
   122  118  127 1   
   123  118  128 1   
   124  119  120 ar  
   125  119  121 ar  
   126  120  122 ar  
   127  120  129 1   
   128  121  123 ar  
   129  121  130 1   
   130  122  124 ar  
   131  122  131 1   
   132  123  124 ar  
   133  123  132 1   
   134  124  133 1   
   135  134  135 1   
   136  134  140 1   
   137  135  136 1   
   138  135  138 1   
   139  135  141 1   
   140  136  137 2   
   141  136  148 1   
   142  138  139 1   
   143  138  142 1   
   144  138  143 1   
   145  139  140 1   
   146  139  144 1   
   147  139  145 1   
   148  140  146 1   
   149  140  147 1   
   150  148  149 1   
   151  148  157 1   
   152  149  150 1   
   153  149  152 1   
   154  149  158 1   
   155  150  151 2   
   156  150  163 1   
   157  152  153 1   
   158  152  159 1   
   159  152  160 1   
   160  153  154 1   
   161  153  161 1   
   162  153  162 1   
   163  154  155 1   
   164  154  156 1   
   165  163  164 1   
   166  163  168 1   
   167  164  165 1   
   168  164  166 1   
   169  164  167 1   
   170  170  171 1   
   171  170  172 1   
   172  173  174 1   
   173  173  175 1   
   174  176  177 1   
   175  176  178 1   
   176  179  180 1   
   177  179  181 1   
@<TRIPOS>SUBSTRUCTURE
     1 MOL         1 TEMP              0 ****  ****    0 ROOT
