@<TRIPOS>MOLECULE
MOL
  201   193     1     0     0
SMALL
resp


@<TRIPOS>ATOM
      1 C1         -3.2800    2.6350    4.2080 c3        1 MOL     -0.680994
      2 C2         -4.4820    1.6660    4.1150 c         1 MOL      0.777226
      3 O1         -4.6280    0.6540    4.8500 o         1 MOL     -0.619276
      4 H1         -3.5820    3.5370    4.7410 hc        1 MOL      0.184989
      5 H2         -2.4630    2.1520    4.7450 hc        1 MOL      0.184989
      6 H3         -2.9490    2.9020    3.2040 hc        1 MOL      0.184989
      7 N1         -5.4350    1.9060    3.2190 n         1 MOL     -0.569320
      8 C3         -6.4760    1.0390    2.8280 c3        1 MOL      0.425799
      9 C4         -6.1760    0.2300    1.4890 c         1 MOL      0.132258
     10 O2         -5.1500    0.3320    0.8390 o         1 MOL     -0.425216
     11 C5         -7.7780    1.8240    2.7380 c3        1 MOL     -0.385955
     12 C6         -7.7160    3.0730    1.8240 c         1 MOL      0.782639
     13 O3         -6.7050    3.1330    1.0390 o         1 MOL     -0.700022
     14 O4         -8.6620    3.9270    1.7690 o         1 MOL     -0.700022
     15 H4         -5.1950    2.6070    2.5390 hn        1 MOL      0.245820
     16 H5         -6.6170    0.3100    3.6190 h1        1 MOL      0.011370
     17 H6         -7.9700    2.0350    3.7850 hc        1 MOL      0.101953
     18 H7         -8.5480    1.1620    2.3290 hc        1 MOL      0.101953
     19 N2         -7.0590   -0.5580    0.9800 n         1 MOL     -0.388664
     20 C7         -6.9290   -1.4300   -0.2920 c3        1 MOL      0.291750
     21 C8         -7.0820   -0.7410   -1.6550 c         1 MOL      0.390367
     22 O5         -7.4280   -1.3490   -2.6760 o         1 MOL     -0.544944
     23 C9         -7.7840   -2.7260   -0.1500 c3        1 MOL     -0.211883
     24 C10        -7.2320   -3.5500    0.9590 c3        1 MOL      0.098346
     25 C11        -8.0790   -4.7870    1.0750 c3        1 MOL     -0.137589
     26 C12        -7.6370   -5.5870    2.3140 c3        1 MOL      0.031934
     27 N3         -8.3840   -6.9650    2.2330 n4        1 MOL     -0.301536
     28 H8         -7.9740   -0.5480    1.4070 hn        1 MOL      0.230332
     29 H9         -5.9250   -1.8290   -0.3570 h1        1 MOL      0.093089
     30 H10        -7.5660   -3.3270   -1.0240 hc        1 MOL      0.074338
     31 H11        -8.7910   -2.3290   -0.0560 hc        1 MOL      0.074338
     32 H12        -7.1560   -3.0910    1.9510 hc        1 MOL      0.004839
     33 H13        -6.2280   -3.8720    0.7070 hc        1 MOL      0.004839
     34 H14        -7.9190   -5.3270    0.1470 hc        1 MOL      0.047542
     35 H15        -9.1160   -4.4830    1.0800 hc        1 MOL      0.047542
     36 H16        -7.8500   -5.0280    3.2270 hx        1 MOL      0.108025
     37 H17        -6.5740   -5.7650    2.2380 hx        1 MOL      0.108025
     38 H18        -9.3700   -6.7800    2.3790 hn        1 MOL      0.292432
     39 H19        -8.3140   -7.3490    1.3020 hn        1 MOL      0.292432
     40 H20        -8.1460   -7.6020    2.9820 hn        1 MOL      0.292432
     41 N4         -6.6600    0.5380   -1.7180 n         1 MOL     -0.034743
     42 C13        -6.2000    1.0110   -3.0390 c3        1 MOL     -0.252267
     43 C14        -4.8360    1.7270   -2.7800 c         1 MOL      0.245923
     44 O6         -4.6380    2.3940   -1.7330 o         1 MOL     -0.461217
     45 C15        -7.3190    1.8190   -3.6920 c3        1 MOL     -0.063415
     46 C16        -7.9700    2.8390   -2.7760 c         1 MOL      0.558736
     47 O7         -9.1240    2.5810   -2.3410 o         1 MOL     -0.669788
     48 O8         -7.4130    3.9200   -2.4500 o         1 MOL     -0.669788
     49 H21        -6.2790    1.0050   -0.9110 hn        1 MOL      0.157807
     50 H22        -5.9800    0.1990   -3.7330 h1        1 MOL      0.170115
     51 H23        -8.1250    1.1720   -4.0540 hc        1 MOL      0.058506
     52 H24        -6.9940    2.2700   -4.6280 hc        1 MOL      0.058506
     53 N5         -3.8460    1.6410   -3.6970 n         1 MOL     -0.239404
     54 C17        -3.9530    0.8950   -5.0200 c3        1 MOL     -0.227471
     55 C18        -3.4900   -0.5410   -4.9730 c         1 MOL      0.647671
     56 O9         -3.7320   -1.3080   -5.9200 o         1 MOL     -0.554488
     57 H25        -2.9540    2.0500   -3.4790 hn        1 MOL      0.277805
     58 H26        -3.4040    1.4730   -5.7610 h1        1 MOL      0.117041
     59 H27        -5.0040    0.8090   -5.2690 h1        1 MOL      0.117041
     60 N6         -2.8050   -0.9830   -3.9380 n         1 MOL     -0.494510
     61 C19        -2.4850   -2.4340   -3.6260 c3        1 MOL      0.223226
     62 C20        -3.0260   -2.8690   -2.2710 c         1 MOL      0.417055
     63 O10        -3.3150   -2.1130   -1.3670 o         1 MOL     -0.502260
     64 C21        -0.9250   -2.5500   -3.5290 c3        1 MOL     -0.178779
     65 C22        -0.1470   -2.2070   -4.7900 c         1 MOL      0.756360
     66 O11        -0.2720   -3.0380   -5.6970 o         1 MOL     -0.697635
     67 O12         0.5530   -1.2010   -4.7950 o         1 MOL     -0.697635
     68 H28        -2.8040   -0.3950   -3.1190 hn        1 MOL      0.294366
     69 H29        -2.9240   -3.2100   -4.2740 h1        1 MOL      0.023927
     70 H30        -0.7430   -3.5770   -3.2100 hc        1 MOL      0.013336
     71 H31        -0.5960   -1.8620   -2.7470 hc        1 MOL      0.013336
     72 N7         -3.2420   -4.1660   -2.0840 n         1 MOL     -0.442157
     73 C23        -3.8740   -4.8620   -0.9050 c3        1 MOL     -0.116546
     74 C24        -2.9790   -4.8380    0.3310 c         1 MOL      0.609458
     75 O13        -2.8940   -5.9350    0.8560 o         1 MOL     -0.580856
     76 H32        -3.0460   -4.7440   -2.8890 hn        1 MOL      0.319358
     77 H33        -4.0790   -5.9090   -1.1270 h1        1 MOL      0.101445
     78 H34        -4.7680   -4.3160   -0.6280 h1        1 MOL      0.101445
     79 N8         -2.4720   -3.6810    0.7350 n         1 MOL     -0.304355
     80 C25        -1.8630   -3.4090    2.0520 c3        1 MOL     -0.243685
     81 C26        -1.0580   -2.1480    2.0630 c         1 MOL      0.625303
     82 O14        -1.3140   -1.0700    1.4560 o         1 MOL     -0.468486
     83 C27        -2.9380   -3.3200    3.1500 c3        1 MOL      0.227391
     84 C28        -3.9550   -2.2450    2.9580 c3        1 MOL     -0.291814
     85 O15        -3.6740   -4.5570    3.1990 oh        1 MOL     -0.654880
     86 H35        -2.8580   -2.8930    0.2380 hn        1 MOL      0.216103
     87 H36        -1.2160   -4.2450    2.3150 h1        1 MOL      0.117739
     88 H37        -2.5030   -3.2390    4.1540 h1        1 MOL      0.058280
     89 H38        -3.0540   -5.2850    3.1920 ho        1 MOL      0.404878
     90 H39        -3.5130   -1.2580    3.0830 hc        1 MOL      0.112199
     91 H40        -4.3160   -2.2880    1.9350 hc        1 MOL      0.112199
     92 H41        -4.7920   -2.4190    3.6460 hc        1 MOL      0.112199
     93 N9          0.0020   -2.1440    2.8530 n         1 MOL     -0.336120
     94 C29         0.7750   -0.8520    3.2160 c3        1 MOL     -0.367501
     95 C30         1.7500   -0.4760    2.1100 c         1 MOL      0.615082
     96 O16         2.0800    0.7230    1.9520 o         1 MOL     -0.538209
     97 C31         1.5660   -1.0600    4.5680 c3        1 MOL      0.132988
     98 C32         0.4370   -1.3350    5.6000 c3        1 MOL      0.045066
     99 C33         2.3180    0.1990    5.0370 c3        1 MOL     -0.361186
    100 C34         0.9940   -1.5830    6.9930 c3        1 MOL     -0.171580
    101 H42         0.1510   -2.9730    3.4110 hn        1 MOL      0.243580
    102 H43         0.0430   -0.0560    3.3640 h1        1 MOL      0.174777
    103 H44         2.1840   -1.9580    4.4710 hc        1 MOL      0.035911
    104 H45        -0.2590   -2.1500    5.3740 hc        1 MOL      0.013492
    105 H46        -0.1910   -0.4430    5.6350 hc        1 MOL      0.013492
    106 H47         2.7580    0.1820    6.0360 hc        1 MOL      0.115448
    107 H48         3.1330    0.3960    4.3370 hc        1 MOL      0.115448
    108 H49         1.6870    1.0900    5.0910 hc        1 MOL      0.115448
    109 H50         0.2800   -1.9640    7.7160 hc        1 MOL      0.037671
    110 H51         1.8040   -2.3050    6.9080 hc        1 MOL      0.037671
    111 H52         1.4740   -0.6760    7.3710 hc        1 MOL      0.037671
    112 N10         2.3800   -1.4500    1.4160 n         1 MOL     -0.321433
    113 C35         3.4080   -1.3040    0.2940 c3        1 MOL     -0.131830
    114 C36         4.3600   -2.5030    0.2710 c         1 MOL      0.546327
    115 O17         3.9000   -3.6100    0.6110 o         1 MOL     -0.521608
    116 C37         2.8230   -1.1610   -1.0880 c3        1 MOL      0.230149
    117 C38         2.0430   -2.3000   -1.6240 c3        1 MOL     -0.239634
    118 O18         1.8670   -0.1200   -1.0330 oh        1 MOL     -0.544197
    119 H53         1.9480   -2.3410    1.5890 hn        1 MOL      0.207327
    120 H54         3.9310   -0.3760    0.5270 h1        1 MOL      0.124189
    121 H55         3.5700   -0.7850   -1.7860 h1        1 MOL      0.043641
    122 H56         1.4030   -0.0800   -1.8720 ho        1 MOL      0.369002
    123 H57         1.5740   -2.0610   -2.5840 hc        1 MOL      0.067685
    124 H58         2.7060   -3.1530   -1.8040 hc        1 MOL      0.067685
    125 H59         1.2220   -2.4660   -0.9230 hc        1 MOL      0.067685
    126 N11         5.5770   -2.3260   -0.1610 n         1 MOL     -0.403309
    127 C39         6.7290   -3.3550   -0.1320 c3        1 MOL     -0.120856
    128 C40         8.0770   -2.6470    0.1050 c         1 MOL      0.629600
    129 O19         8.8050   -3.0580    0.9750 o         1 MOL     -0.556987
    130 C41         6.8870   -4.0120   -1.4900 c3        1 MOL      0.326912
    131 C42         7.8090   -5.2160   -1.6780 c3        1 MOL     -0.451916
    132 O20         7.1430   -3.0470   -2.5070 oh        1 MOL     -0.601205
    133 H60         5.8670   -1.3830   -0.3990 hn        1 MOL      0.216722
    134 H61         6.4790   -4.1180    0.6040 h1        1 MOL      0.130359
    135 H62         5.8790   -4.3790   -1.6780 h1        1 MOL      0.048582
    136 H63         6.3100   -2.6640   -2.7860 ho        1 MOL      0.383488
    137 H64         8.8190   -4.8500   -1.8120 hc        1 MOL      0.130987
    138 H65         7.7200   -6.0090   -0.9350 hc        1 MOL      0.130987
    139 H66         7.5240   -5.8360   -2.5320 hc        1 MOL      0.130987
    140 N12         8.4490   -1.4980   -0.5650 n         1 MOL     -0.427057
    141 C43         9.6480   -0.5960   -0.2140 c3        1 MOL     -0.153592
    142 C44         9.3900    0.7950   -0.7340 c         1 MOL      0.580317
    143 O21         9.0250    0.9290   -1.8890 o         1 MOL     -0.494331
    144 C45        10.9270   -1.2390   -0.7740 c3        1 MOL     -0.175508
    145 C46        12.2510   -0.4330   -0.7160 c3        1 MOL      0.278272
    146 C47        13.3970   -0.9770   -1.5590 c3        1 MOL     -0.063912
    147 C48        14.5580   -0.0300   -1.7340 c3        1 MOL      0.188157
    148 N13        15.7740   -0.7170   -2.2530 n4        1 MOL     -0.384339
    149 H67         7.7870   -1.2770   -1.2970 hn        1 MOL      0.291018
    150 H68         9.6960   -0.6210    0.8690 h1        1 MOL      0.132953
    151 H69        10.8080   -1.2950   -1.8600 hc        1 MOL      0.094101
    152 H70        11.1510   -2.2450   -0.4290 hc        1 MOL      0.094101
    153 H71        12.5280   -0.2520    0.3240 hc        1 MOL     -0.075564
    154 H72        12.1290    0.5910   -1.0480 hc        1 MOL     -0.075564
    155 H73        12.8880   -1.1290   -2.5140 hc        1 MOL      0.003244
    156 H74        13.6420   -1.9150   -1.0560 hc        1 MOL      0.003244
    157 H75        14.7260    0.5090   -0.8080 hx        1 MOL      0.051007
    158 H76        14.2350    0.7550   -2.4150 hx        1 MOL      0.051007
    159 H77        16.0780   -0.3100   -3.1230 hn        1 MOL      0.298722
    160 H78        16.4700   -0.5050   -1.5550 hn        1 MOL      0.298722
    161 H79        15.6220   -1.6920   -2.4650 hn        1 MOL      0.298722
    162 N14         9.6940    1.7620    0.1700 n         1 MOL     -0.500095
    163 C49         9.2990    3.1650    0.0080 c3        1 MOL      0.175302
    164 C50         7.7850    3.3620    0.3150 c         1 MOL      0.395230
    165 O22         7.1530    4.0010   -0.5320 o         1 MOL     -0.538817
    166 C51        10.1840    4.1900    0.7620 c3        1 MOL      0.094882
    167 C52        11.6780    4.3070    0.3490 c3        1 MOL     -0.269301
    168 C53        12.5370    5.0630    1.3680 c         1 MOL      0.681216
    169 O23        12.4570    6.3110    1.3660 o         1 MOL     -0.675740
    170 O24        13.1720    4.4030    2.1840 o         1 MOL     -0.675740
    171 H80        10.1180    1.5000    1.0530 hn        1 MOL      0.310690
    172 H81         9.4660    3.5240   -1.0020 h1        1 MOL      0.047390
    173 H82        10.1870    3.9280    1.8170 hc        1 MOL      0.022510
    174 H83         9.7080    5.1710    0.7590 hc        1 MOL      0.022510
    175 H84        11.7760    4.7320   -0.6550 hc        1 MOL      0.031699
    176 H85        12.0630    3.2900    0.2390 hc        1 MOL      0.031699
    177 N15         7.1310    2.9240    1.3740 n         1 MOL     -0.370968
    178 C54         7.7270    2.4490    2.6680 c3        1 MOL     -0.051112
    179 H86         8.6520    1.9080    2.4660 h1        1 MOL      0.053358
    180 H87         7.9420    3.3060    3.3070 h1        1 MOL      0.053358
    181 H88         7.0230    1.7870    3.1730 h1        1 MOL      0.053358
    182 H89         6.1410    3.0940    1.2870 hn        1 MOL      0.308298
    183 Ca1        -5.5450    4.6880   -0.5520 Ca        1 MOL      1.733642
    184 O25        -7.6980    6.0790    0.2890 oh        1 MOL     -0.809481
    185 H90        -8.5190    6.4670   -0.0090 ho        1 MOL      0.401464
    186 H91        -7.9710    5.3150    0.8000 ho        1 MOL      0.401464
    187 O26        -3.9610    4.7040   -3.0270 oh        1 MOL     -0.809481
    188 H92        -4.4850    4.4110   -3.7700 ho        1 MOL      0.401464
    189 H93        -3.1950    5.1130   -3.4290 ho        1 MOL      0.401464
    190 O27        -5.4440    5.5620    2.1590 oh        1 MOL     -0.809481
    191 H94        -4.6980    5.7310    2.7400 ho        1 MOL      0.401464
    192 H95        -6.1860    5.9620    2.5980 ho        1 MOL      0.401464
    193 O28        -6.2100    6.8310   -2.2290 oh        1 MOL     -0.809481
    194 H96        -6.7540    6.6290   -2.9990 ho        1 MOL      0.401464
    195 H97        -5.9410    7.7400   -2.3600 ho        1 MOL      0.401464
    196 O29        -3.3760    6.4970   -0.3200 oh        1 MOL     -0.809481
    197 H98        -3.0940    7.2370    0.2070 ho        1 MOL      0.401464
    198 H99        -2.5630    6.1000   -0.6390 ho        1 MOL      0.401464
    199 O30        -3.5320    3.7440    0.8140 oh        1 MOL     -0.809481
    200 H100       -2.7880    4.1580    1.2460 ho        1 MOL      0.401464
    201 H101       -3.2910    2.8230    0.7420 ho        1 MOL      0.401464
@<TRIPOS>BOND
     1    1    2 1   
     2    1    4 1   
     3    1    5 1   
     4    1    6 1   
     5    2    3 2   
     6    2    7 1   
     7    7    8 1   
     8    7   15 1   
     9    8    9 1   
    10    8   11 1   
    11    8   16 1   
    12    9   10 2   
    13    9   19 1   
    14   11   12 1   
    15   11   17 1   
    16   11   18 1   
    17   12   13 1   
    18   12   14 1   
    19   19   20 1   
    20   19   28 1   
    21   20   21 1   
    22   20   23 1   
    23   20   29 1   
    24   21   22 2   
    25   21   41 1   
    26   23   24 1   
    27   23   30 1   
    28   23   31 1   
    29   24   25 1   
    30   24   32 1   
    31   24   33 1   
    32   25   26 1   
    33   25   34 1   
    34   25   35 1   
    35   26   27 1   
    36   26   36 1   
    37   26   37 1   
    38   27   38 1   
    39   27   39 1   
    40   27   40 1   
    41   41   42 1   
    42   41   49 1   
    43   42   43 1   
    44   42   45 1   
    45   42   50 1   
    46   43   44 2   
    47   43   53 1   
    48   45   46 1   
    49   45   51 1   
    50   45   52 1   
    51   46   47 1   
    52   46   48 1   
    53   53   54 1   
    54   53   57 1   
    55   54   55 1   
    56   54   58 1   
    57   54   59 1   
    58   55   56 2   
    59   55   60 1   
    60   60   61 1   
    61   60   68 1   
    62   61   62 1   
    63   61   64 1   
    64   61   69 1   
    65   62   63 2   
    66   62   72 1   
    67   64   65 1   
    68   64   70 1   
    69   64   71 1   
    70   65   66 1   
    71   65   67 1   
    72   72   73 1   
    73   72   76 1   
    74   73   74 1   
    75   73   77 1   
    76   73   78 1   
    77   74   75 2   
    78   74   79 1   
    79   79   80 1   
    80   79   86 1   
    81   80   81 1   
    82   80   83 1   
    83   80   87 1   
    84   81   82 2   
    85   81   93 1   
    86   83   84 1   
    87   83   85 1   
    88   83   88 1   
    89   84   90 1   
    90   84   91 1   
    91   84   92 1   
    92   85   89 1   
    93   93   94 1   
    94   93  101 1   
    95   94   95 1   
    96   94   97 1   
    97   94  102 1   
    98   95   96 2   
    99   95  112 1   
   100   97   98 1   
   101   97   99 1   
   102   97  103 1   
   103   98  100 1   
   104   98  104 1   
   105   98  105 1   
   106   99  106 1   
   107   99  107 1   
   108   99  108 1   
   109  100  109 1   
   110  100  110 1   
   111  100  111 1   
   112  112  113 1   
   113  112  119 1   
   114  113  114 1   
   115  113  116 1   
   116  113  120 1   
   117  114  115 2   
   118  114  126 1   
   119  116  117 1   
   120  116  118 1   
   121  116  121 1   
   122  117  123 1   
   123  117  124 1   
   124  117  125 1   
   125  118  122 1   
   126  126  127 1   
   127  126  133 1   
   128  127  128 1   
   129  127  130 1   
   130  127  134 1   
   131  128  129 2   
   132  128  140 1   
   133  130  131 1   
   134  130  132 1   
   135  130  135 1   
   136  131  137 1   
   137  131  138 1   
   138  131  139 1   
   139  132  136 1   
   140  140  141 1   
   141  140  149 1   
   142  141  142 1   
   143  141  144 1   
   144  141  150 1   
   145  142  143 2   
   146  142  162 1   
   147  144  145 1   
   148  144  151 1   
   149  144  152 1   
   150  145  146 1   
   151  145  153 1   
   152  145  154 1   
   153  146  147 1   
   154  146  155 1   
   155  146  156 1   
   156  147  148 1   
   157  147  157 1   
   158  147  158 1   
   159  148  159 1   
   160  148  160 1   
   161  148  161 1   
   162  162  163 1   
   163  162  171 1   
   164  163  164 1   
   165  163  166 1   
   166  163  172 1   
   167  164  165 2   
   168  164  177 1   
   169  166  167 1   
   170  166  173 1   
   171  166  174 1   
   172  167  168 1   
   173  167  175 1   
   174  167  176 1   
   175  168  169 1   
   176  168  170 1   
   177  177  178 1   
   178  177  182 1   
   179  178  179 1   
   180  178  180 1   
   181  178  181 1   
   182  184  185 1   
   183  184  186 1   
   184  187  188 1   
   185  187  189 1   
   186  190  191 1   
   187  190  192 1   
   188  193  194 1   
   189  193  195 1   
   190  196  197 1   
   191  196  198 1   
   192  199  200 1   
   193  199  201 1   
@<TRIPOS>SUBSTRUCTURE
     1 MOL         1 TEMP              0 ****  ****    0 ROOT
