@<TRIPOS>MOLECULE
MOL
  189   185     1     0     0
SMALL
resp


@<TRIPOS>ATOM
      1 C1          4.0780    3.4120   -4.3190 c3        1 MOL     -0.404443
      2 C2          4.7640    3.0280   -3.0120 c         1 MOL      0.712955
      3 O1          4.0850    2.7680   -1.9920 o         1 MOL     -0.585486
      4 H1          4.6830    3.0710   -5.1600 hc        1 MOL      0.102782
      5 H2          3.0950    2.9430   -4.3660 hc        1 MOL      0.102782
      6 H3          3.9670    4.4950   -4.3680 hc        1 MOL      0.102782
      7 N1          6.1180    2.9770   -3.0320 n         1 MOL     -0.668786
      8 C3          6.9350    2.0120   -2.2810 c3        1 MOL      0.230749
      9 C4          6.1280    0.7670   -1.8880 c         1 MOL      0.299782
     10 O2          5.7860    0.5630   -0.7450 o         1 MOL     -0.370736
     11 C5          7.7720    2.6330   -1.1710 c3        1 MOL     -0.144051
     12 C6          7.0660    3.6500   -0.2170 c         1 MOL      0.691968
     13 O3          5.8250    3.6480   -0.0980 o         1 MOL     -0.692709
     14 O4          7.7760    4.3670    0.4990 o         1 MOL     -0.692709
     15 H4          6.5880    3.3870   -3.8240 hn        1 MOL      0.351061
     16 H5          7.6340    1.7210   -3.0640 h1        1 MOL     -0.003551
     17 H6          8.5490    3.1590   -1.7140 hc        1 MOL      0.023765
     18 H7          8.1770    1.8200   -0.5770 hc        1 MOL      0.023765
     19 N2          6.0420   -0.1680   -2.8840 n         1 MOL     -0.498517
     20 C7          5.5140   -1.4660   -2.6640 c3        1 MOL      0.112091
     21 C8          6.3450   -2.4120   -1.7720 c         1 MOL      0.474026
     22 O5          6.7440   -3.4640   -2.2410 o         1 MOL     -0.584625
     23 C9          3.9900   -1.5530   -2.3890 c3        1 MOL      0.288474
     24 C10         3.3860   -2.9290   -2.3860 c3        1 MOL     -0.027114
     25 C11         3.2930   -0.6030   -3.3880 c3        1 MOL     -0.250993
     26 C12         3.3290   -3.6370   -3.7920 c3        1 MOL     -0.435990
     27 H8          6.4760    0.0730   -3.7660 hn        1 MOL      0.305569
     28 H9          5.6100   -2.0130   -3.5950 h1        1 MOL     -0.007979
     29 H10         3.8310   -1.1220   -1.4080 hc        1 MOL     -0.110266
     30 H11         2.3580   -2.7350   -2.0570 hc        1 MOL      0.068429
     31 H12         3.9550   -3.6110   -1.7570 hc        1 MOL      0.068429
     32 H13         3.4700    0.4760   -3.3330 hc        1 MOL      0.047361
     33 H14         3.3390   -0.8930   -4.4410 hc        1 MOL      0.047361
     34 H15         2.2140   -0.7020   -3.2340 hc        1 MOL      0.047361
     35 H16         4.3640   -3.9320   -3.9580 hc        1 MOL      0.100654
     36 H17         2.7900   -4.5660   -3.6290 hc        1 MOL      0.100654
     37 H18         2.7150   -3.0680   -4.4790 hc        1 MOL      0.100654
     38 N3          6.5970   -2.1910   -0.5070 n         1 MOL     -0.205139
     39 C13         7.4160   -2.9810    0.4990 c3        1 MOL     -0.125664
     40 C14         6.7580   -4.3160    0.6590 c         1 MOL      0.721090
     41 O6          7.4740   -5.2960    0.5760 o         1 MOL     -0.608687
     42 C15         7.6130   -2.2910    1.8890 c3        1 MOL     -0.320605
     43 C16         8.2060   -0.9050    1.7900 c         1 MOL      0.892207
     44 O7          7.4840    0.0200    2.1780 o         1 MOL     -0.737987
     45 O8          9.4180   -0.7960    1.5560 o         1 MOL     -0.737987
     46 H19         6.1990   -1.2910   -0.2900 hn        1 MOL      0.201520
     47 H20         8.4340   -3.1960    0.1730 h1        1 MOL      0.102611
     48 H21         8.2450   -2.8800    2.5650 hc        1 MOL      0.078505
     49 H22         6.6160   -2.1760    2.3200 hc        1 MOL      0.078505
     50 N4          5.4320   -4.5070    0.9500 n         1 MOL     -0.695898
     51 C17         4.4070   -3.5100    1.2040 c3        1 MOL      0.418849
     52 C18         3.1800   -4.1690    1.7660 c         1 MOL      0.295372
     53 O9          2.9700   -5.4070    1.5110 o         1 MOL     -0.558353
     54 H23         5.1520   -5.4650    0.8200 hn        1 MOL      0.326619
     55 H24         4.2360   -3.0360    0.2390 h1        1 MOL     -0.027364
     56 H25         4.7740   -2.7310    1.8740 h1        1 MOL     -0.027364
     57 N5          2.4030   -3.5290    2.5540 n         1 MOL     -0.255274
     58 C19         2.3750   -2.0800    2.8940 c3        1 MOL      0.107384
     59 C20         2.4450   -1.1860    1.6730 c         1 MOL      0.067130
     60 O10         3.4210   -0.5430    1.3260 o         1 MOL     -0.485468
     61 C21         3.4030   -1.7550    4.0570 c3        1 MOL     -0.495054
     62 C22         3.4220   -0.3070    4.5570 c         1 MOL      0.853176
     63 O11         4.3780    0.2690    5.1090 o         1 MOL     -0.704979
     64 O12         2.3630    0.3360    4.5690 o         1 MOL     -0.704979
     65 H26         1.7590   -4.1200    3.0610 hn        1 MOL      0.254441
     66 H27         1.4030   -1.9390    3.3790 h1        1 MOL      0.074191
     67 H28         4.4290   -1.9740    3.7540 hc        1 MOL      0.130748
     68 H29         3.2090   -2.3180    4.9690 hc        1 MOL      0.130748
     69 N6          1.3970   -1.1600    0.8960 n         1 MOL     -0.032518
     70 C23        -0.0620   -1.4080    1.1820 c3        1 MOL     -0.063627
     71 C24        -0.7320   -2.5510    0.3680 c         1 MOL      0.409229
     72 O13        -0.0300   -3.1470   -0.4930 o         1 MOL     -0.451848
     73 H30         1.5650   -0.7230    0.0010 hn        1 MOL      0.204756
     74 H31        -0.6290   -0.4690    1.1730 h1        1 MOL      0.061365
     75 H32        -0.1840   -1.8070    2.1780 h1        1 MOL      0.061365
     76 N7         -1.9740   -2.9210    0.6730 n         1 MOL     -0.256188
     77 C25        -2.5500   -4.1930    0.1670 c3        1 MOL     -0.129616
     78 C26        -2.8530   -4.1890   -1.2780 c         1 MOL      0.390231
     79 O14        -2.9830   -5.2450   -1.9490 o         1 MOL     -0.500193
     80 C27        -3.9650   -4.4340    0.8760 c3        1 MOL      0.092718
     81 C28        -3.7780   -4.8630    2.3230 c3        1 MOL     -0.203529
     82 C29        -3.2440   -6.2720    2.5000 c         1 MOL      0.677305
     83 N8         -3.1950   -6.7940    3.7100 n         1 MOL     -0.797187
     84 O15        -2.9310   -7.0940    1.6470 o         1 MOL     -0.529828
     85 H33        -2.5050   -2.5670    1.4540 hn        1 MOL      0.236548
     86 H34        -1.9400   -5.0730    0.3300 h1        1 MOL      0.153571
     87 H35        -4.4540   -5.2100    0.2840 hc        1 MOL      0.020063
     88 H36        -4.6100   -3.5500    0.8200 hc        1 MOL      0.020063
     89 H37        -4.7380   -4.7880    2.8340 hc        1 MOL      0.038055
     90 H38        -3.1130   -4.2310    2.9100 hc        1 MOL      0.038055
     91 H39        -3.4650   -6.1440    4.4380 hn        1 MOL      0.361349
     92 H40        -3.0560   -7.7900    3.7300 hn        1 MOL      0.361349
     93 N9         -3.2180   -3.0430   -1.8490 n         1 MOL     -0.077061
     94 C30        -3.6080   -2.7610   -3.2700 c3        1 MOL     -0.370621
     95 C31        -4.9330   -1.9980   -3.2410 c         1 MOL      0.785266
     96 O16        -5.6140   -2.0460   -4.2720 o         1 MOL     -0.579060
     97 C32        -2.5920   -2.0000   -4.1140 c3        1 MOL      0.108203
     98 C33        -1.5460   -3.0060   -4.4890 c3        1 MOL     -0.263809
     99 C34        -1.9940   -0.8990   -3.3440 c3        1 MOL     -0.263809
    100 H41        -3.2330   -2.1610   -1.3490 hn        1 MOL      0.007661
    101 H42        -3.8940   -3.6890   -3.7730 h1        1 MOL      0.189656
    102 H43        -2.9810   -1.4620   -4.9720 hc        1 MOL      0.041058
    103 H44        -1.2000   -3.4990   -3.5750 hc        1 MOL      0.088215
    104 H45        -1.9150   -3.7420   -5.2030 hc        1 MOL      0.088215
    105 H46        -0.7620   -2.4740   -5.0110 hc        1 MOL      0.088215
    106 H47        -1.5910   -1.2720   -2.4030 hc        1 MOL      0.088215
    107 H48        -1.1610   -0.5310   -3.9570 hc        1 MOL      0.088215
    108 H49        -2.7390   -0.1420   -3.1040 hc        1 MOL      0.088215
    109 N10        -5.3370   -1.3200   -2.1390 n         1 MOL     -0.655816
    110 C35        -6.6730   -0.7120   -1.9370 c3        1 MOL      0.163352
    111 C36        -6.7620    0.6060   -1.1470 c         1 MOL      0.408352
    112 O17        -7.7410    1.3850   -1.3110 o         1 MOL     -0.511113
    113 C37        -7.5300   -1.7650   -1.2000 c3        1 MOL     -0.472323
    114 C38        -7.9980   -2.9800   -1.9390 c         1 MOL      0.732197
    115 N11        -8.7570   -2.8070   -3.0340 n         1 MOL     -0.786985
    116 O18        -7.7570   -4.1050   -1.6190 o         1 MOL     -0.546986
    117 H50        -4.6760   -1.3470   -1.3680 hn        1 MOL      0.433701
    118 H51        -7.0870   -0.5270   -2.9290 h1        1 MOL      0.085394
    119 H52        -8.4700   -1.3780   -0.8130 hc        1 MOL      0.119311
    120 H53        -6.9300   -1.9580   -0.3190 hc        1 MOL      0.119311
    121 H54        -9.1090   -1.8950   -3.2790 hn        1 MOL      0.356742
    122 H55        -9.0460   -3.6430   -3.5410 hn        1 MOL      0.356742
    123 N12        -5.7640    1.0190   -0.3540 n         1 MOL     -0.232873
    124 C39        -5.8460    2.2340    0.5420 c3        1 MOL      0.038137
    125 C40        -4.4620    2.9870    0.7420 c         1 MOL      0.315895
    126 O19        -3.4400    2.3100    0.7500 o         1 MOL     -0.392944
    127 C41        -6.3600    1.9030    1.9950 c3        1 MOL      0.041894
    128 C42        -7.5870    1.0710    2.0360 ca        1 MOL     -0.139624
    129 C43        -7.4050   -0.3180    2.0170 ca        1 MOL     -0.023854
    130 C44        -8.9150    1.6070    2.0210 ca        1 MOL     -0.023854
    131 C45        -8.5520   -1.1930    2.0810 ca        1 MOL     -0.327365
    132 C46       -10.0360    0.7710    1.9420 ca        1 MOL     -0.327365
    133 C47        -9.8600   -0.5750    2.0440 ca        1 MOL      0.402329
    134 O20       -11.0420   -1.3270    2.1860 oh        1 MOL     -0.549359
    135 H56        -4.8940    0.5160   -0.2600 hn        1 MOL      0.150396
    136 H57        -6.5020    2.9330    0.0240 h1        1 MOL      0.042070
    137 H58        -6.4070    2.8200    2.6030 hc        1 MOL      0.036324
    138 H59        -5.5260    1.4960    2.5600 hc        1 MOL      0.036324
    139 H60        -6.3750   -0.6410    2.0290 ha        1 MOL      0.106442
    140 H61        -9.0260    2.6740    1.9160 ha        1 MOL      0.106442
    141 H62        -8.4440   -2.2630    2.0140 ha        1 MOL      0.167149
    142 H63       -11.0140    1.1780    1.7270 ha        1 MOL      0.167149
    143 H64       -10.9070   -2.2740    2.0880 ho        1 MOL      0.370423
    144 N13        -4.5360    4.2870    1.0530 n         1 MOL     -0.171536
    145 C48        -3.4300    5.3000    1.2570 c3        1 MOL     -0.406355
    146 C49        -2.3390    5.2640    0.1280 c         1 MOL      0.595380
    147 O21        -1.5570    6.2070    0.0230 o         1 MOL     -0.524793
    148 C50        -2.7000    5.0360    2.6070 c3        1 MOL      0.336742
    149 C51        -3.4810    5.3200    3.8590 c3        1 MOL     -0.193460
    150 C52        -2.7600    4.8250    5.1450 c         1 MOL      0.642423
    151 O22        -1.9380    5.6480    5.6040 o         1 MOL     -0.700783
    152 O23        -2.8910    3.6790    5.7160 o         1 MOL     -0.700783
    153 H65        -5.4480    4.7080    1.0020 hn        1 MOL      0.230702
    154 H66        -3.9270    6.2630    1.3600 h1        1 MOL      0.180091
    155 H67        -1.7580    5.5610    2.7500 hc        1 MOL     -0.007160
    156 H68        -2.4340    3.9820    2.6830 hc        1 MOL     -0.007160
    157 H69        -4.4140    4.7560    3.8240 hc        1 MOL     -0.022149
    158 H70        -3.7310    6.3790    3.8970 hc        1 MOL     -0.022149
    159 N14        -2.2920    4.4220   -0.8910 n         1 MOL     -0.613910
    160 C53        -1.2400    4.3330   -1.9320 c3        1 MOL      0.270660
    161 C54        -1.5340    5.1340   -3.1770 c         1 MOL      0.512485
    162 O24        -0.6840    5.8190   -3.6630 o         1 MOL     -0.525728
    163 C55        -0.9420    2.9010   -2.2860 c3        1 MOL     -0.164182
    164 C56        -0.4780    1.8500   -1.2640 c3        1 MOL      0.685862
    165 C57         0.9870    2.2000   -0.7120 c         1 MOL      0.416298
    166 O25         1.3030    3.3170   -0.2230 o         1 MOL     -0.631837
    167 O26         1.8320    1.2790   -0.6670 o         1 MOL     -0.631837
    168 H71        -2.9420    3.6630   -0.8130 hn        1 MOL      0.233426
    169 H72        -0.3140    4.8080   -1.6060 h1        1 MOL      0.064196
    170 H73        -0.1190    2.9590   -2.9910 hc        1 MOL     -0.027967
    171 H74        -1.7680    2.4810   -2.8510 hc        1 MOL     -0.027967
    172 H75        -0.5010    0.8640   -1.7310 hc        1 MOL     -0.221383
    173 H76        -1.1780    1.6810   -0.4500 hc        1 MOL     -0.221383
    174 N15        -2.7240    5.0050   -3.8110 n         1 MOL     -0.275698
    175 C58        -3.1670    5.7240   -4.9630 c3        1 MOL     -0.371302
    176 H77        -2.6230    5.3730   -5.8400 h1        1 MOL      0.132439
    177 H78        -4.2340    5.5570   -5.1070 h1        1 MOL      0.132439
    178 H79        -2.9800    6.7890   -4.8220 h1        1 MOL      0.132439
    179 H80        -3.4380    4.4360   -3.3880 hn        1 MOL      0.238752
    180 Ca1         3.8120    2.1890    0.5630 Ca        1 MOL      1.740282
    181 O27         3.8000    4.4490    1.9150 oh        1 MOL     -0.835848
    182 H81         3.3920    4.5690    2.7640 ho        1 MOL      0.405130
    183 H82         4.3440    5.2300    1.7880 ho        1 MOL      0.405130
    184 O28         2.1480    1.9590    2.5770 oh        1 MOL     -0.835848
    185 H83         1.2070    2.1000    2.5000 ho        1 MOL      0.405130
    186 H84         2.2500    1.3170    3.2780 ho        1 MOL      0.405130
    187 O29         5.4660    1.6450    2.7800 oh        1 MOL     -0.835848
    188 H85         5.0630    1.5080    3.6350 ho        1 MOL      0.405130
    189 H86         6.0520    0.9030    2.6640 ho        1 MOL      0.405130
@<TRIPOS>BOND
     1    1    2 1   
     2    1    4 1   
     3    1    5 1   
     4    1    6 1   
     5    2    3 2   
     6    2    7 1   
     7    7    8 1   
     8    7   15 1   
     9    8    9 1   
    10    8   11 1   
    11    8   16 1   
    12    9   10 2   
    13    9   19 1   
    14   11   12 1   
    15   11   17 1   
    16   11   18 1   
    17   12   13 1   
    18   12   14 1   
    19   19   20 1   
    20   19   27 1   
    21   20   21 1   
    22   20   23 1   
    23   20   28 1   
    24   21   22 2   
    25   21   38 1   
    26   23   24 1   
    27   23   25 1   
    28   23   29 1   
    29   24   26 1   
    30   24   30 1   
    31   24   31 1   
    32   25   32 1   
    33   25   33 1   
    34   25   34 1   
    35   26   35 1   
    36   26   36 1   
    37   26   37 1   
    38   38   39 1   
    39   38   46 1   
    40   39   40 1   
    41   39   42 1   
    42   39   47 1   
    43   40   41 2   
    44   40   50 1   
    45   42   43 1   
    46   42   48 1   
    47   42   49 1   
    48   43   44 1   
    49   43   45 1   
    50   50   51 1   
    51   50   54 1   
    52   51   52 1   
    53   51   55 1   
    54   51   56 1   
    55   52   53 2   
    56   52   57 1   
    57   57   58 1   
    58   57   65 1   
    59   58   59 1   
    60   58   61 1   
    61   58   66 1   
    62   59   60 2   
    63   59   69 1   
    64   61   62 1   
    65   61   67 1   
    66   61   68 1   
    67   62   63 1   
    68   62   64 1   
    69   69   70 1   
    70   69   73 1   
    71   70   71 1   
    72   70   74 1   
    73   70   75 1   
    74   71   72 2   
    75   71   76 1   
    76   76   77 1   
    77   76   85 1   
    78   77   78 1   
    79   77   80 1   
    80   77   86 1   
    81   78   79 2   
    82   78   93 1   
    83   80   81 1   
    84   80   87 1   
    85   80   88 1   
    86   81   82 1   
    87   81   89 1   
    88   81   90 1   
    89   82   83 1   
    90   82   84 2   
    91   83   91 1   
    92   83   92 1   
    93   93   94 1   
    94   93  100 1   
    95   94   95 1   
    96   94   97 1   
    97   94  101 1   
    98   95   96 2   
    99   95  109 1   
   100   97   98 1   
   101   97   99 1   
   102   97  102 1   
   103   98  103 1   
   104   98  104 1   
   105   98  105 1   
   106   99  106 1   
   107   99  107 1   
   108   99  108 1   
   109  109  110 1   
   110  109  117 1   
   111  110  111 1   
   112  110  113 1   
   113  110  118 1   
   114  111  112 2   
   115  111  123 1   
   116  113  114 1   
   117  113  119 1   
   118  113  120 1   
   119  114  115 1   
   120  114  116 2   
   121  115  121 1   
   122  115  122 1   
   123  123  124 1   
   124  123  135 1   
   125  124  125 1   
   126  124  127 1   
   127  124  136 1   
   128  125  126 2   
   129  125  144 1   
   130  127  128 1   
   131  127  137 1   
   132  127  138 1   
   133  128  129 ar  
   134  128  130 ar  
   135  129  131 ar  
   136  129  139 1   
   137  130  132 ar  
   138  130  140 1   
   139  131  133 ar  
   140  131  141 1   
   141  132  133 ar  
   142  132  142 1   
   143  133  134 1   
   144  134  143 1   
   145  144  145 1   
   146  144  153 1   
   147  145  146 1   
   148  145  148 1   
   149  145  154 1   
   150  146  147 2   
   151  146  159 1   
   152  148  149 1   
   153  148  155 1   
   154  148  156 1   
   155  149  150 1   
   156  149  157 1   
   157  149  158 1   
   158  150  151 1   
   159  150  152 1   
   160  159  160 1   
   161  159  168 1   
   162  160  161 1   
   163  160  163 1   
   164  160  169 1   
   165  161  162 2   
   166  161  174 1   
   167  163  164 1   
   168  163  170 1   
   169  163  171 1   
   170  164  165 1   
   171  164  172 1   
   172  164  173 1   
   173  165  166 1   
   174  165  167 1   
   175  174  175 1   
   176  174  179 1   
   177  175  176 1   
   178  175  177 1   
   179  175  178 1   
   180  181  182 1   
   181  181  183 1   
   182  184  185 1   
   183  184  186 1   
   184  187  188 1   
   185  187  189 1   
@<TRIPOS>SUBSTRUCTURE
     1 MOL         1 TEMP              0 ****  ****    0 ROOT
