@<TRIPOS>MOLECULE
MOL
  186   183     1     0     0
SMALL
resp


@<TRIPOS>ATOM
      1 C1          4.2150    4.1070   -3.7560 c3        1 MOL     -0.437177
      2 C2          4.8230    3.0710   -2.7830 c         1 MOL      0.908254
      3 O1          4.3140    2.9150   -1.6960 o         1 MOL     -0.718766
      4 H1          3.6630    3.5880   -4.5400 hc        1 MOL      0.107127
      5 H2          3.5390    4.7660   -3.2110 hc        1 MOL      0.107127
      6 H3          5.0150    4.6970   -4.2060 hc        1 MOL      0.107127
      7 N1          5.9700    2.5080   -3.1340 n         1 MOL     -0.861580
      8 C3          6.8500    1.5540   -2.4270 c3        1 MOL      0.617458
      9 C4          6.0470    0.3250   -2.0540 c         1 MOL      0.156747
     10 O2          5.6770    0.1480   -0.9070 o         1 MOL     -0.503887
     11 C5          7.8600    2.1010   -1.4720 c3        1 MOL     -0.314332
     12 C6          7.3570    3.0630   -0.4200 c         1 MOL      0.893891
     13 O3          6.6020    2.6280    0.4910 o         1 MOL     -0.761219
     14 O4          7.6470    4.2400   -0.3940 o         1 MOL     -0.761219
     15 H4          6.3290    2.7650   -4.0450 hn        1 MOL      0.331691
     16 H5          7.4920    1.1870   -3.2180 h1        1 MOL     -0.040028
     17 H6          8.5690    2.6180   -2.1080 hc        1 MOL      0.027810
     18 H7          8.3830    1.2720   -0.9960 hc        1 MOL      0.027810
     19 N2          5.7930   -0.5190   -3.0290 n         1 MOL     -0.388032
     20 C7          5.0400   -1.7910   -2.8690 c3        1 MOL      0.126848
     21 C8          5.7720   -2.7720   -2.0030 c         1 MOL      0.386222
     22 O5          6.0490   -3.8800   -2.5470 o         1 MOL     -0.591255
     23 C9          3.5740   -1.4480   -2.4300 c3        1 MOL     -0.002862
     24 C10         2.7560   -2.7150   -2.2370 c3        1 MOL      0.035279
     25 C11         2.9770   -0.4320   -3.3370 c3        1 MOL     -0.042586
     26 C12         2.6330   -3.6230   -3.4800 c3        1 MOL     -0.399354
     27 H8          6.1860   -0.2740   -3.9300 hn        1 MOL      0.254888
     28 H9          4.9860   -2.2870   -3.8340 h1        1 MOL      0.043560
     29 H10         3.6520   -1.0140   -1.4370 hc        1 MOL      0.095268
     30 H11         1.7670   -2.3850   -1.9110 hc        1 MOL      0.046353
     31 H12         3.0550   -3.2890   -1.3600 hc        1 MOL      0.046353
     32 H13         2.8230   -0.8080   -4.3500 hc        1 MOL     -0.003020
     33 H14         1.9990   -0.2000   -2.9190 hc        1 MOL     -0.003020
     34 H15         3.4710    0.5290   -3.4900 hc        1 MOL     -0.003020
     35 H16         3.6000   -3.7410   -3.9630 hc        1 MOL      0.088006
     36 H17         2.2560   -4.5510   -3.0430 hc        1 MOL      0.088006
     37 H18         1.8200   -3.2980   -4.1290 hc        1 MOL      0.088006
     38 N3          6.0560   -2.5770   -0.7210 n         1 MOL     -0.182099
     39 C13         6.7820   -3.4970    0.1640 c3        1 MOL     -0.044692
     40 C14         5.9860   -4.7300    0.5660 c         1 MOL      0.658901
     41 O6          6.5590   -5.7980    0.6810 o         1 MOL     -0.605535
     42 C15         7.4510   -2.7570    1.3170 c3        1 MOL     -0.099235
     43 C16         8.3780   -1.5870    1.0010 c         1 MOL      0.700258
     44 O7          9.0010   -1.5450   -0.0880 o         1 MOL     -0.714674
     45 O8          8.4870   -0.7560    1.9320 o         1 MOL     -0.714674
     46 H19         5.8500   -1.6210   -0.4850 hn        1 MOL      0.329681
     47 H20         7.6500   -3.9040   -0.3370 h1        1 MOL      0.057563
     48 H21         8.0410   -3.4670    1.8990 hc        1 MOL      0.026908
     49 H22         6.7150   -2.3040    1.9740 hc        1 MOL      0.026908
     50 N4          4.7080   -4.6940    0.9360 n         1 MOL     -0.667023
     51 C17         4.0150   -3.4600    1.4480 c3        1 MOL      0.351348
     52 C18         4.3350   -3.1150    2.8750 c         1 MOL      0.434938
     53 O9          5.2410   -3.7010    3.4790 o         1 MOL     -0.559178
     54 H23         4.4700   -5.5780    1.3640 hn        1 MOL      0.307809
     55 H24         2.9700   -3.7560    1.4380 h1        1 MOL     -0.019345
     56 H25         4.1930   -2.6760    0.7180 h1        1 MOL     -0.019345
     57 N5          3.7640   -2.1300    3.5520 n         1 MOL     -0.471103
     58 C19         2.4150   -1.4610    3.2090 c3        1 MOL      0.179623
     59 C20         2.3550   -1.0110    1.7610 c         1 MOL     -0.010074
     60 O10         3.4180   -0.6670    1.2330 o         1 MOL     -0.477083
     61 C21         2.2500   -0.2850    4.1440 c3        1 MOL     -0.439807
     62 C22         3.3910    0.7500    4.0380 c         1 MOL      0.840077
     63 O11         4.3970    0.6400    4.7050 o         1 MOL     -0.702110
     64 O12         3.3970    1.5410    3.1080 o         1 MOL     -0.702110
     65 H26         4.2610   -1.7670    4.3530 hn        1 MOL      0.334719
     66 H27         1.6320   -2.2110    3.3610 h1        1 MOL      0.043016
     67 H28         2.2980   -0.7190    5.1460 hc        1 MOL      0.101555
     68 H29         1.2830    0.1960    3.9650 hc        1 MOL      0.101555
     69 N6          1.2150   -0.9130    1.0860 n         1 MOL     -0.013375
     70 C23        -0.1330   -1.3170    1.5540 c3        1 MOL     -0.068724
     71 C24        -0.5300   -2.7780    1.1260 c         1 MOL      0.457190
     72 O13         0.2570   -3.5730    0.5340 o         1 MOL     -0.490267
     73 H30         1.2980   -0.5060    0.1660 hn        1 MOL      0.182935
     74 H31        -0.9490   -0.6240    1.3440 h1        1 MOL      0.085623
     75 H32        -0.1260   -1.3230    2.6460 h1        1 MOL      0.085623
     76 N7         -1.8390   -3.0100    1.1070 n         1 MOL     -0.391335
     77 C25        -2.4850   -4.1810    0.5420 c3        1 MOL      0.119723
     78 C26        -3.1400   -4.0700   -0.8310 c         1 MOL      0.375282
     79 O14        -3.2900   -5.0940   -1.4630 o         1 MOL     -0.511795
     80 C27        -3.3780   -4.8170    1.6880 c3        1 MOL     -0.208999
     81 C28        -4.5590   -4.0630    2.3270 c3        1 MOL     -0.008866
     82 C29        -5.6080   -3.6540    1.2730 c         1 MOL      0.257820
     83 N8         -6.2940   -4.5730    0.6600 n         1 MOL     -0.508373
     84 O15        -5.7530   -2.5040    0.9680 o         1 MOL     -0.380257
     85 H33        -2.4470   -2.2970    1.4820 hn        1 MOL      0.258783
     86 H34        -1.7010   -4.9090    0.3300 h1        1 MOL      0.110237
     87 H35        -2.6970   -5.1260    2.4830 hc        1 MOL      0.059149
     88 H36        -3.8540   -5.7330    1.3200 hc        1 MOL      0.059149
     89 H37        -4.0340   -3.2020    2.7500 hc        1 MOL      0.055078
     90 H38        -4.8790   -4.5720    3.2450 hc        1 MOL      0.055078
     91 H39        -6.3600   -5.4690    1.1280 hn        1 MOL      0.287637
     92 H40        -7.0110   -4.2590    0.0240 hn        1 MOL      0.287637
     93 N9         -3.6200   -2.8920   -1.3740 n         1 MOL     -0.093600
     94 C30        -3.9390   -2.6750   -2.7990 c3        1 MOL     -0.263927
     95 C31        -5.3200   -1.9430   -3.0480 c         1 MOL      0.530876
     96 O16        -5.8450   -1.9360   -4.1780 o         1 MOL     -0.559848
     97 C32        -2.8360   -1.8290   -3.4670 c3        1 MOL      0.095098
     98 C33        -1.5600   -2.6260   -3.4790 c3        1 MOL     -0.034541
     99 C34        -2.5860   -0.5380   -2.7860 c3        1 MOL     -0.034541
    100 H41        -3.4180   -2.0970   -0.8000 hn        1 MOL      0.146955
    101 H42        -3.9520   -3.6360   -3.3170 h1        1 MOL      0.159850
    102 H43        -3.1480   -1.6580   -4.4890 hc        1 MOL      0.015687
    103 H44        -1.6840   -3.6270   -3.8800 hc        1 MOL      0.010157
    104 H45        -0.8480   -2.2430   -4.2070 hc        1 MOL      0.010157
    105 H46        -1.1620   -2.6700   -2.4740 hc        1 MOL      0.010157
    106 H47        -2.2800   -0.7820   -1.7680 hc        1 MOL      0.010157
    107 H48        -1.8140    0.0480   -3.2860 hc        1 MOL      0.010157
    108 H49        -3.4930    0.0520   -2.7380 hc        1 MOL      0.010157
    109 N10        -5.9760   -1.3470   -2.0370 n         1 MOL     -0.167106
    110 C35        -7.2490   -0.6580   -2.0310 c3        1 MOL     -0.095479
    111 C36        -7.3810    0.6900   -1.3770 c         1 MOL      0.530551
    112 O17        -8.3090    1.4540   -1.6590 o         1 MOL     -0.538866
    113 C37        -8.2620   -1.6570   -1.4040 c3        1 MOL     -0.109390
    114 C38        -8.1640   -3.0060   -2.1540 c         1 MOL      0.587699
    115 N11        -8.8420   -3.1360   -3.2600 n         1 MOL     -0.788760
    116 O18        -7.5870   -3.9710   -1.6510 o         1 MOL     -0.521918
    117 H50        -5.5730   -1.4680   -1.1200 hn        1 MOL      0.187197
    118 H51        -7.5010   -0.4880   -3.0740 h1        1 MOL      0.083162
    119 H52        -9.2550   -1.2150   -1.4860 hc        1 MOL      0.041285
    120 H53        -8.1600   -1.8270   -0.3320 hc        1 MOL      0.041285
    121 H54        -9.4340   -2.4000   -3.6180 hn        1 MOL      0.379636
    122 H55        -8.6210   -3.9430   -3.8190 hn        1 MOL      0.379636
    123 N12        -6.4500    1.0420   -0.4850 n         1 MOL     -0.430302
    124 C39        -6.3740    2.3860    0.0940 c3        1 MOL      0.286893
    125 C40        -4.9270    2.8220    0.3930 c         1 MOL      0.309686
    126 O19        -4.0210    1.9760    0.3850 o         1 MOL     -0.324030
    127 C41        -7.1890    2.3690    1.4510 c3        1 MOL     -0.400363
    128 C42        -7.0200    1.0870    2.2660 ca        1 MOL      0.346265
    129 C43        -8.0710    0.1600    2.4110 ca        1 MOL     -0.444138
    130 C44        -5.7580    0.9320    2.9580 ca        1 MOL     -0.444138
    131 C45        -7.8020   -1.1020    3.0630 ca        1 MOL      0.050707
    132 C46        -5.6660   -0.2060    3.8300 ca        1 MOL      0.050707
    133 C47        -6.6340   -1.2690    3.8130 ca        1 MOL     -0.029689
    134 O20        -6.2530   -2.4060    4.5080 oh        1 MOL     -0.413874
    135 H56        -5.6400    0.4550   -0.3350 hn        1 MOL      0.208506
    136 H57        -6.9350    3.0630   -0.5530 h1        1 MOL      0.034605
    137 H58        -8.2220    2.5050    1.1260 hc        1 MOL      0.111681
    138 H59        -6.8630    3.1820    2.0980 hc        1 MOL      0.111681
    139 H60        -8.8930    0.3680    1.7540 ha        1 MOL      0.205581
    140 H61        -5.0510    1.7390    2.9630 ha        1 MOL      0.205581
    141 H62        -8.5660   -1.8610    3.0650 ha        1 MOL      0.094607
    142 H63        -4.7640   -0.2990    4.4140 ha        1 MOL      0.094607
    143 H64        -6.9590   -2.9770    4.8070 ho        1 MOL      0.347243
    144 N13        -4.7810    4.1380    0.7380 n         1 MOL     -0.567821
    145 C48        -3.5950    5.0030    1.1000 c3        1 MOL      0.079604
    146 C49        -2.4880    5.0920    0.0350 c         1 MOL      0.337978
    147 O21        -1.9440    6.1490   -0.1910 o         1 MOL     -0.498646
    148 C50        -3.1290    4.7890    2.5500 c3        1 MOL      0.193565
    149 C51        -2.2720    5.8560    3.3130 c3        1 MOL     -0.211335
    150 C52        -1.4030    5.0520    4.3470 c         1 MOL      0.690480
    151 O22        -0.2670    4.7170    3.9430 o         1 MOL     -0.714682
    152 O23        -1.8830    4.6350    5.4800 o         1 MOL     -0.714682
    153 H65        -5.6540    4.6550    0.8070 hn        1 MOL      0.311835
    154 H66        -3.9460    6.0370    1.1340 h1        1 MOL      0.038716
    155 H67        -2.5340    3.8720    2.5140 hc        1 MOL     -0.003488
    156 H68        -3.9600    4.5210    3.1980 hc        1 MOL     -0.003488
    157 H69        -2.9680    6.5010    3.8480 hc        1 MOL     -0.004136
    158 H70        -1.6830    6.4770    2.6480 hc        1 MOL     -0.004136
    159 N14        -2.1850    3.9860   -0.6430 n         1 MOL     -0.077352
    160 C53        -1.1220    3.9310   -1.5690 c3        1 MOL      0.042392
    161 C54        -1.3360    4.7260   -2.8560 c         1 MOL      0.452958
    162 O24        -0.4190    5.3730   -3.3660 o         1 MOL     -0.528660
    163 C55        -0.8500    2.5210   -2.1420 c3        1 MOL      0.042895
    164 C56        -0.2920    1.5070   -1.1000 c3        1 MOL      0.580287
    165 C57         1.0690    1.9260   -0.5370 c         1 MOL      0.356863
    166 O25         1.2140    2.8190    0.3030 o         1 MOL     -0.562145
    167 O26         1.9780    1.0860   -0.7140 o         1 MOL     -0.562145
    168 H71        -2.8180    3.2120   -0.4730 hn        1 MOL      0.102394
    169 H72        -0.2140    4.2900   -1.0840 h1        1 MOL      0.085590
    170 H73        -0.1340    2.6150   -2.9550 hc        1 MOL     -0.066451
    171 H74        -1.7450    2.0780   -2.6030 hc        1 MOL     -0.066451
    172 H75        -0.2680    0.5200   -1.5700 hc        1 MOL     -0.223649
    173 H76        -1.0930    1.5530   -0.3610 hc        1 MOL     -0.223649
    174 N15        -2.5800    4.7300   -3.3300 n         1 MOL     -0.279094
    175 C58        -3.0570    5.5720   -4.4350 c3        1 MOL     -0.194829
    176 H77        -3.6830    4.9770   -5.1000 h1        1 MOL      0.087609
    177 H78        -3.6390    6.4020   -4.0340 h1        1 MOL      0.087609
    178 H79        -2.2040    5.9600   -4.9900 h1        1 MOL      0.087609
    179 H80        -3.2730    4.2600   -2.7670 hn        1 MOL      0.215841
    180 Ca1         4.0640    1.7690    0.6610 Ca        1 MOL      1.746401
    181 O27         3.9610    4.4880    0.9220 oh        1 MOL     -0.851173
    182 H81         3.0660    4.8370    0.9780 ho        1 MOL      0.422665
    183 H82         4.3570    4.9760    0.1970 ho        1 MOL      0.422665
    184 O28         5.8440    0.3720    2.1250 oh        1 MOL     -0.851173
    185 H83         5.8740   -0.0900    2.9670 ho        1 MOL      0.422665
    186 H84         6.5670    0.0020    1.6200 ho        1 MOL      0.422665
@<TRIPOS>BOND
     1    1    2 1   
     2    1    4 1   
     3    1    5 1   
     4    1    6 1   
     5    2    3 2   
     6    2    7 1   
     7    7    8 1   
     8    7   15 1   
     9    8    9 1   
    10    8   11 1   
    11    8   16 1   
    12    9   10 2   
    13    9   19 1   
    14   11   12 1   
    15   11   17 1   
    16   11   18 1   
    17   12   13 1   
    18   12   14 1   
    19   19   20 1   
    20   19   27 1   
    21   20   21 1   
    22   20   23 1   
    23   20   28 1   
    24   21   22 2   
    25   21   38 1   
    26   23   24 1   
    27   23   25 1   
    28   23   29 1   
    29   24   26 1   
    30   24   30 1   
    31   24   31 1   
    32   25   32 1   
    33   25   33 1   
    34   25   34 1   
    35   26   35 1   
    36   26   36 1   
    37   26   37 1   
    38   38   39 1   
    39   38   46 1   
    40   39   40 1   
    41   39   42 1   
    42   39   47 1   
    43   40   41 2   
    44   40   50 1   
    45   42   43 1   
    46   42   48 1   
    47   42   49 1   
    48   43   44 1   
    49   43   45 1   
    50   50   51 1   
    51   50   54 1   
    52   51   52 1   
    53   51   55 1   
    54   51   56 1   
    55   52   53 2   
    56   52   57 1   
    57   57   58 1   
    58   57   65 1   
    59   58   59 1   
    60   58   61 1   
    61   58   66 1   
    62   59   60 2   
    63   59   69 1   
    64   61   62 1   
    65   61   67 1   
    66   61   68 1   
    67   62   63 1   
    68   62   64 1   
    69   69   70 1   
    70   69   73 1   
    71   70   71 1   
    72   70   74 1   
    73   70   75 1   
    74   71   72 2   
    75   71   76 1   
    76   76   77 1   
    77   76   85 1   
    78   77   78 1   
    79   77   80 1   
    80   77   86 1   
    81   78   79 2   
    82   78   93 1   
    83   80   81 1   
    84   80   87 1   
    85   80   88 1   
    86   81   82 1   
    87   81   89 1   
    88   81   90 1   
    89   82   83 1   
    90   82   84 2   
    91   83   91 1   
    92   83   92 1   
    93   93   94 1   
    94   93  100 1   
    95   94   95 1   
    96   94   97 1   
    97   94  101 1   
    98   95   96 2   
    99   95  109 1   
   100   97   98 1   
   101   97   99 1   
   102   97  102 1   
   103   98  103 1   
   104   98  104 1   
   105   98  105 1   
   106   99  106 1   
   107   99  107 1   
   108   99  108 1   
   109  109  110 1   
   110  109  117 1   
   111  110  111 1   
   112  110  113 1   
   113  110  118 1   
   114  111  112 2   
   115  111  123 1   
   116  113  114 1   
   117  113  119 1   
   118  113  120 1   
   119  114  115 1   
   120  114  116 2   
   121  115  121 1   
   122  115  122 1   
   123  123  124 1   
   124  123  135 1   
   125  124  125 1   
   126  124  127 1   
   127  124  136 1   
   128  125  126 2   
   129  125  144 1   
   130  127  128 1   
   131  127  137 1   
   132  127  138 1   
   133  128  129 ar  
   134  128  130 ar  
   135  129  131 ar  
   136  129  139 1   
   137  130  132 ar  
   138  130  140 1   
   139  131  133 ar  
   140  131  141 1   
   141  132  133 ar  
   142  132  142 1   
   143  133  134 1   
   144  134  143 1   
   145  144  145 1   
   146  144  153 1   
   147  145  146 1   
   148  145  148 1   
   149  145  154 1   
   150  146  147 2   
   151  146  159 1   
   152  148  149 1   
   153  148  155 1   
   154  148  156 1   
   155  149  150 1   
   156  149  157 1   
   157  149  158 1   
   158  150  151 1   
   159  150  152 1   
   160  159  160 1   
   161  159  168 1   
   162  160  161 1   
   163  160  163 1   
   164  160  169 1   
   165  161  162 2   
   166  161  174 1   
   167  163  164 1   
   168  163  170 1   
   169  163  171 1   
   170  164  165 1   
   171  164  172 1   
   172  164  173 1   
   173  165  166 1   
   174  165  167 1   
   175  174  175 1   
   176  174  179 1   
   177  175  176 1   
   178  175  177 1   
   179  175  178 1   
   180  181  182 1   
   181  181  183 1   
   182  184  185 1   
   183  184  186 1   
@<TRIPOS>SUBSTRUCTURE
     1 MOL         1 TEMP              0 ****  ****    0 ROOT
