@<TRIPOS>MOLECULE
MOL
  181   177     1     0     0
SMALL
resp


@<TRIPOS>ATOM
      1 C1          7.3740   -5.5500    4.5640 c3        1 MOL     -0.165870
      2 C2          6.3120   -4.9710    3.6080 c         1 MOL      0.513693
      3 O1          5.3690   -4.2470    3.9560 o         1 MOL     -0.546120
      4 H1          8.3290   -5.0570    4.3860 hc        1 MOL      0.043035
      5 H2          7.0640   -5.3810    5.5950 hc        1 MOL      0.043035
      6 H3          7.4790   -6.6200    4.3860 hc        1 MOL      0.043035
      7 N1          6.6040   -4.8180    2.3410 n         1 MOL     -0.442185
      8 C3          7.7540   -5.3040    1.5670 c3        1 MOL      0.035282
      9 C4          7.2680   -5.4870    0.1040 c         1 MOL      0.452834
     10 O2          6.0500   -5.5290   -0.1090 o         1 MOL     -0.449555
     11 C5          8.8390   -4.2290    1.7560 c3        1 MOL      0.001459
     12 C6          8.4720   -2.7960    1.2660 c         1 MOL      0.659567
     13 O3          8.7910   -2.4020    0.1310 o         1 MOL     -0.656979
     14 O4          7.9260   -2.0170    2.0380 o         1 MOL     -0.656979
     15 H4          5.9510   -4.2410    1.8340 hn        1 MOL      0.374537
     16 H5          8.1700   -6.2110    2.0110 h1        1 MOL      0.048466
     17 H6          9.7730   -4.4840    1.2350 hc        1 MOL     -0.045449
     18 H7          9.0840   -4.1900    2.8100 hc        1 MOL     -0.045449
     19 N2          8.1950   -5.5210   -0.8300 n         1 MOL     -0.542599
     20 C7          7.8400   -5.5470   -2.2860 c3        1 MOL      0.423830
     21 C8          6.7890   -4.5070   -2.6490 c         1 MOL      0.167268
     22 O5          5.8580   -4.8570   -3.4010 o         1 MOL     -0.482194
     23 C9          7.5570   -6.9650   -2.6630 c3        1 MOL     -0.582196
     24 H8          9.1570   -5.6590   -0.5650 hn        1 MOL      0.315834
     25 H9          8.7980   -5.2480   -2.7030 h1        1 MOL     -0.016061
     26 H10         8.2300   -7.7090   -2.2530 hc        1 MOL      0.155233
     27 H11         6.5620   -7.2270   -2.3120 hc        1 MOL      0.155233
     28 H12         7.4650   -7.0110   -3.7530 hc        1 MOL      0.155233
     29 N3          6.8230   -3.2840   -2.1610 n         1 MOL      0.015722
     30 C10         5.7520   -2.2260   -2.5120 c3        1 MOL      0.008734
     31 C11         6.5160   -0.8070   -2.6880 c         1 MOL      0.287438
     32 O6          7.6560   -0.6000   -2.2630 o         1 MOL     -0.491048
     33 C12         4.6100   -2.2450   -1.4850 c3        1 MOL     -0.175558
     34 C13         5.0320   -1.9870   -0.0350 c         1 MOL      0.711367
     35 O7          5.8810   -1.1330    0.2350 o         1 MOL     -0.674449
     36 O8          4.5290   -2.7270    0.8080 o         1 MOL     -0.674449
     37 H13         7.5530   -2.9880   -1.5260 hn        1 MOL      0.002630
     38 H14         5.2870   -2.4270   -3.4780 h1        1 MOL      0.052862
     39 H15         4.1390   -3.2260   -1.3970 hc        1 MOL      0.073789
     40 H16         3.8510   -1.5080   -1.7230 hc        1 MOL      0.073789
     41 N4          5.8400    0.1710   -3.3260 n         1 MOL     -0.215528
     42 C14         6.4220    1.5010   -3.5680 c3        1 MOL     -0.306299
     43 C15         6.3620    2.3440   -2.3000 c         1 MOL      0.559227
     44 O9          6.3890    1.7270   -1.1790 o         1 MOL     -0.578876
     45 H17         4.9470   -0.0200   -3.7640 hn        1 MOL      0.290142
     46 H18         5.8560    2.0730   -4.3010 h1        1 MOL      0.151761
     47 H19         7.3860    1.4120   -4.0560 h1        1 MOL      0.151761
     48 N5          6.2130    3.6630   -2.3160 n         1 MOL     -0.492544
     49 C16         5.8490    4.5230   -1.2380 c3        1 MOL      0.072201
     50 C17         4.3330    4.4730   -0.8890 c         1 MOL      0.678591
     51 O10         3.4590    4.0990   -1.7230 o         1 MOL     -0.514610
     52 C18         6.2850    6.0040   -1.5660 c3        1 MOL     -0.399114
     53 C19         7.8000    6.0660   -1.8160 c         1 MOL      0.838234
     54 N6          8.5080    6.4020   -0.8010 n         1 MOL     -0.889311
     55 O11         8.2680    5.8960   -2.9500 o         1 MOL     -0.603285
     56 H20         6.1680    3.9460   -3.2910 hn        1 MOL      0.312489
     57 H21         6.3440    4.1750   -0.3290 h1        1 MOL      0.032320
     58 H22         5.9690    6.6490   -0.7370 hc        1 MOL      0.125805
     59 H23         5.8720    6.3330   -2.5230 hc        1 MOL      0.125805
     60 H24         8.0600    6.6560    0.0690 hn        1 MOL      0.371626
     61 H25         9.4990    6.5640   -0.8890 hn        1 MOL      0.371626
     62 N7          4.0210    4.9330    0.2860 n         1 MOL     -0.528395
     63 C20         2.6520    4.7210    0.7680 c3        1 MOL      0.020907
     64 C21         1.6570    5.8790    0.4770 c         1 MOL      0.594645
     65 O12         2.0710    6.8520   -0.1740 o         1 MOL     -0.565200
     66 H26         4.7320    5.2770    0.9230 hn        1 MOL      0.316061
     67 H27         2.6880    4.4560    1.8300 h1        1 MOL      0.065675
     68 H28         2.1430    3.8480    0.3580 h1        1 MOL      0.065675
     69 N8          0.4110    5.8770    1.0180 n         1 MOL     -0.378257
     70 C22        -0.1860    4.8710    1.8890 c3        1 MOL     -0.495773
     71 C23        -1.2160    4.1850    1.1020 c         1 MOL      0.707309
     72 O13        -2.0780    4.8430    0.5130 o         1 MOL     -0.514513
     73 C24        -0.7970    5.4830    3.1300 c3        1 MOL      0.529883
     74 C25         0.3270    6.1200    3.9080 c3        1 MOL     -0.302525
     75 O14        -1.6830    6.5460    2.7950 oh        1 MOL     -0.626241
     76 H29        -0.2830    6.5580    0.7290 hn        1 MOL      0.302276
     77 H30         0.5380    4.1470    2.2730 h1        1 MOL      0.144294
     78 H31        -1.3840    4.7810    3.7320 h1        1 MOL     -0.003235
     79 H32        -2.3360    6.1740    2.2000 ho        1 MOL      0.423265
     80 H33         1.1350    5.4360    4.1760 hc        1 MOL      0.069292
     81 H34         0.8010    6.9160    3.3410 hc        1 MOL      0.069292
     82 H35        -0.0750    6.5770    4.8140 hc        1 MOL      0.069292
     83 N9         -1.3310    2.8200    1.2050 n         1 MOL     -0.453768
     84 C26        -2.6390    2.0940    0.9600 c3        1 MOL     -0.165307
     85 C27        -3.7640    2.5620    1.8550 c         1 MOL      0.631990
     86 O15        -3.5100    3.1650    2.9350 o         1 MOL     -0.599807
     87 C28        -2.4600    0.5680    1.1040 c3        1 MOL      0.082460
     88 C29        -1.9750    0.2140    2.5960 c3        1 MOL      0.113188
     89 C30        -1.4440    0.1480    0.0430 c3        1 MOL     -0.114839
     90 C31        -1.7710   -1.2420    2.9650 c3        1 MOL     -0.254693
     91 H36        -0.6890    2.3340    1.7980 hn        1 MOL      0.262233
     92 H37        -2.9590    2.2730   -0.0720 h1        1 MOL      0.130361
     93 H38        -3.3340   -0.0710    0.9170 hc        1 MOL      0.077966
     94 H39        -2.5850    0.6580    3.3850 hc        1 MOL     -0.020364
     95 H40        -0.9790    0.6390    2.7190 hc        1 MOL     -0.020364
     96 H41        -1.8140    0.1960   -0.9810 hc        1 MOL      0.037085
     97 H42        -0.5140    0.7160    0.1310 hc        1 MOL      0.037085
     98 H43        -1.2490   -0.9020    0.2410 hc        1 MOL      0.037085
     99 H44        -1.1970   -1.8550    2.2720 hc        1 MOL      0.063450
    100 H45        -1.4010   -1.2260    3.9900 hc        1 MOL      0.063450
    101 H46        -2.7190   -1.7770    2.9970 hc        1 MOL      0.063450
    102 N10        -5.0390    2.4460    1.4410 n         1 MOL     -0.709064
    103 C32        -5.5730    2.1020    0.0760 c3        1 MOL      0.535670
    104 C33        -6.8820    1.2930    0.2570 c         1 MOL      0.370824
    105 O16        -7.3830    1.1240    1.3520 o         1 MOL     -0.507210
    106 C34        -5.7860    3.4130   -0.7600 c3        1 MOL     -0.333148
    107 C35        -6.7770    4.4520   -0.1960 c         1 MOL      0.860879
    108 O17        -7.1260    5.4110   -0.9570 o         1 MOL     -0.723538
    109 O18        -7.1880    4.4720    0.9560 o         1 MOL     -0.723538
    110 H47        -5.6540    2.9540    2.0520 hn        1 MOL      0.383842
    111 H48        -4.9650    1.3260   -0.3920 h1        1 MOL     -0.050098
    112 H49        -6.1610    3.0790   -1.7270 hc        1 MOL      0.019092
    113 H50        -4.8160    3.9040   -0.7850 hc        1 MOL      0.019092
    114 N11        -7.4730    0.7860   -0.8130 n         1 MOL     -0.550582
    115 C36        -8.9260    0.3040   -0.7910 c3        1 MOL      0.465502
    116 C37        -9.0180   -0.8930   -1.8300 c         1 MOL      0.262265
    117 O19        -8.4880   -0.7290   -2.8900 o         1 MOL     -0.502463
    118 C38        -9.9350    1.4150   -1.0830 c3        1 MOL     -0.138821
    119 C39       -11.3790    0.9330   -1.2110 ca        1 MOL      0.020888
    120 C40       -12.0980    0.9600   -2.3940 ca        1 MOL     -0.065745
    121 C41       -11.9780    0.3500   -0.0800 ca        1 MOL     -0.065745
    122 C42       -13.3510    0.3060   -2.5390 ca        1 MOL     -0.183343
    123 C43       -13.2730   -0.1280   -0.0990 ca        1 MOL     -0.183343
    124 C44       -13.8300   -0.3220   -1.3830 ca        1 MOL     -0.086772
    125 H51        -7.1260    0.8500   -1.7540 hn        1 MOL      0.322862
    126 H52        -9.1610   -0.0450    0.2050 h1        1 MOL      0.007636
    127 H53        -9.6030    1.8580   -2.0250 hc        1 MOL      0.039758
    128 H54        -9.8080    2.2110   -0.3470 hc        1 MOL      0.039758
    129 H55       -11.7840    1.5350   -3.2510 ha        1 MOL      0.103003
    130 H56       -11.5320    0.3470    0.9090 ha        1 MOL      0.103003
    131 H57       -13.8690    0.1840   -3.4670 ha        1 MOL      0.122407
    132 H58       -13.6740   -0.6300    0.7670 ha        1 MOL      0.122407
    133 H59       -14.7250   -0.9090   -1.5460 ha        1 MOL      0.073870
    134 N12        -9.6860   -2.0390   -1.6520 n         1 MOL      0.020154
    135 C45       -10.0110   -2.6170   -0.3370 c3        1 MOL     -0.019255
    136 C46        -8.8290   -2.7710    0.6380 c         1 MOL      0.460079
    137 O20        -8.8700   -2.2120    1.7150 o         1 MOL     -0.532872
    138 C47       -10.7400   -3.9620   -0.7090 c3        1 MOL     -0.015031
    139 C48       -11.2020   -3.7210   -2.1700 c3        1 MOL      0.038742
    140 C49        -9.9870   -2.9850   -2.7290 c3        1 MOL     -0.238382
    141 H60       -10.6580   -1.9370    0.2260 h1        1 MOL      0.015683
    142 H61       -10.0990   -4.8360   -0.6370 hc        1 MOL      0.014224
    143 H62       -11.5720   -4.2210   -0.0500 hc        1 MOL      0.014224
    144 H63       -11.5120   -4.6270   -2.6930 hc        1 MOL      0.006205
    145 H64       -12.0430   -3.0310   -2.1440 hc        1 MOL      0.006205
    146 H65        -9.1110   -3.6120   -2.8930 h1        1 MOL      0.104292
    147 H66       -10.3000   -2.4650   -3.6350 h1        1 MOL      0.104292
    148 N13        -7.8250   -3.4180    0.1360 n         1 MOL     -0.393911
    149 C50        -6.5800   -3.7030    0.8830 c3        1 MOL      0.242407
    150 C51        -6.7750   -4.9730    1.7200 c         1 MOL      0.436227
    151 O21        -7.0330   -6.0120    1.1110 o         1 MOL     -0.577671
    152 C52        -5.3980   -3.8420   -0.0470 c3        1 MOL     -0.084732
    153 C53        -5.0150   -2.4080   -0.4620 c3        1 MOL      0.152009
    154 C54        -4.0040   -2.6170   -1.5720 c         1 MOL      0.627095
    155 O22        -2.9380   -3.2670   -1.4300 o         1 MOL     -0.683072
    156 O23        -4.2420   -1.8670   -2.5870 o         1 MOL     -0.683072
    157 H67        -7.8910   -3.8710   -0.7660 hn        1 MOL      0.297447
    158 H68        -6.2590   -2.8750    1.5190 h1        1 MOL      0.048809
    159 H69        -5.7780   -4.4370   -0.8880 hc        1 MOL      0.005358
    160 H70        -4.5510   -4.3030    0.4440 hc        1 MOL      0.005358
    161 H71        -4.6600   -1.7760    0.3410 hc        1 MOL     -0.083569
    162 H72        -5.8480   -1.9170   -0.9810 hc        1 MOL     -0.083569
    163 N14        -6.7790   -4.9070    3.0680 n         1 MOL     -0.418164
    164 C55        -6.8700   -3.6950    3.9820 c3        1 MOL     -0.043611
    165 H73        -7.6110   -3.8820    4.7590 h1        1 MOL      0.062203
    166 H74        -5.8990   -3.5140    4.4440 h1        1 MOL      0.062203
    167 H75        -7.1640   -2.8220    3.4010 h1        1 MOL      0.062203
    168 H76        -7.0240   -5.7860    3.4940 hn        1 MOL      0.272974
    169 Ca1         8.1630    0.0940    0.2230 Ca        1 MOL      1.835696
    170 O24        10.2920   -0.1950    1.8640 oh        1 MOL     -0.890645
    171 H77        11.1180    0.2590    1.6820 ho        1 MOL      0.411610
    172 H78        10.3340   -0.4040    2.7910 ho        1 MOL      0.411610
    173 O25        10.3940    0.2950   -1.1530 oh        1 MOL     -0.890645
    174 H79        10.5200   -0.3280   -1.8790 ho        1 MOL      0.411610
    175 H80        11.1950    0.8010   -1.1280 ho        1 MOL      0.411610
    176 O26         7.1960    1.4600    2.3480 oh        1 MOL     -0.890645
    177 H81         7.7480    1.7190    3.0910 ho        1 MOL      0.411610
    178 H82         6.3480    1.8650    2.5340 ho        1 MOL      0.411610
    179 O27         9.0250    2.7390    0.1910 oh        1 MOL     -0.890645
    180 H83         9.2120    3.2990    0.9400 ho        1 MOL      0.411610
    181 H84         9.3070    3.2410   -0.5710 ho        1 MOL      0.411610
@<TRIPOS>BOND
     1    1    2 1   
     2    1    4 1   
     3    1    5 1   
     4    1    6 1   
     5    2    3 2   
     6    2    7 1   
     7    7    8 1   
     8    7   15 1   
     9    8    9 1   
    10    8   11 1   
    11    8   16 1   
    12    9   10 2   
    13    9   19 1   
    14   11   12 1   
    15   11   17 1   
    16   11   18 1   
    17   12   13 1   
    18   12   14 1   
    19   19   20 1   
    20   19   24 1   
    21   20   21 1   
    22   20   23 1   
    23   20   25 1   
    24   21   22 2   
    25   21   29 1   
    26   23   26 1   
    27   23   27 1   
    28   23   28 1   
    29   29   30 1   
    30   29   37 1   
    31   30   31 1   
    32   30   33 1   
    33   30   38 1   
    34   31   32 2   
    35   31   41 1   
    36   33   34 1   
    37   33   39 1   
    38   33   40 1   
    39   34   35 1   
    40   34   36 1   
    41   41   42 1   
    42   41   45 1   
    43   42   43 1   
    44   42   46 1   
    45   42   47 1   
    46   43   44 2   
    47   43   48 1   
    48   48   49 1   
    49   48   56 1   
    50   49   50 1   
    51   49   52 1   
    52   49   57 1   
    53   50   51 2   
    54   50   62 1   
    55   52   53 1   
    56   52   58 1   
    57   52   59 1   
    58   53   54 1   
    59   53   55 2   
    60   54   60 1   
    61   54   61 1   
    62   62   63 1   
    63   62   66 1   
    64   63   64 1   
    65   63   67 1   
    66   63   68 1   
    67   64   65 2   
    68   64   69 1   
    69   69   70 1   
    70   69   76 1   
    71   70   71 1   
    72   70   73 1   
    73   70   77 1   
    74   71   72 2   
    75   71   83 1   
    76   73   74 1   
    77   73   75 1   
    78   73   78 1   
    79   74   80 1   
    80   74   81 1   
    81   74   82 1   
    82   75   79 1   
    83   83   84 1   
    84   83   91 1   
    85   84   85 1   
    86   84   87 1   
    87   84   92 1   
    88   85   86 2   
    89   85  102 1   
    90   87   88 1   
    91   87   89 1   
    92   87   93 1   
    93   88   90 1   
    94   88   94 1   
    95   88   95 1   
    96   89   96 1   
    97   89   97 1   
    98   89   98 1   
    99   90   99 1   
   100   90  100 1   
   101   90  101 1   
   102  102  103 1   
   103  102  110 1   
   104  103  104 1   
   105  103  106 1   
   106  103  111 1   
   107  104  105 2   
   108  104  114 1   
   109  106  107 1   
   110  106  112 1   
   111  106  113 1   
   112  107  108 1   
   113  107  109 1   
   114  114  115 1   
   115  114  125 1   
   116  115  116 1   
   117  115  118 1   
   118  115  126 1   
   119  116  117 2   
   120  116  134 1   
   121  118  119 1   
   122  118  127 1   
   123  118  128 1   
   124  119  120 ar  
   125  119  121 ar  
   126  120  122 ar  
   127  120  129 1   
   128  121  123 ar  
   129  121  130 1   
   130  122  124 ar  
   131  122  131 1   
   132  123  124 ar  
   133  123  132 1   
   134  124  133 1   
   135  134  135 1   
   136  134  140 1   
   137  135  136 1   
   138  135  138 1   
   139  135  141 1   
   140  136  137 2   
   141  136  148 1   
   142  138  139 1   
   143  138  142 1   
   144  138  143 1   
   145  139  140 1   
   146  139  144 1   
   147  139  145 1   
   148  140  146 1   
   149  140  147 1   
   150  148  149 1   
   151  148  157 1   
   152  149  150 1   
   153  149  152 1   
   154  149  158 1   
   155  150  151 2   
   156  150  163 1   
   157  152  153 1   
   158  152  159 1   
   159  152  160 1   
   160  153  154 1   
   161  153  161 1   
   162  153  162 1   
   163  154  155 1   
   164  154  156 1   
   165  163  164 1   
   166  163  168 1   
   167  164  165 1   
   168  164  166 1   
   169  164  167 1   
   170  170  171 1   
   171  170  172 1   
   172  173  174 1   
   173  173  175 1   
   174  176  177 1   
   175  176  178 1   
   176  179  180 1   
   177  179  181 1   
@<TRIPOS>SUBSTRUCTURE
     1 MOL         1 TEMP              0 ****  ****    0 ROOT
