@<TRIPOS>MOLECULE
MOL
  179   176     1     0     0
SMALL
resp


@<TRIPOS>ATOM
      1 C1          0.0000   -3.8960    5.9900 c3        1 MOL     -0.459666
      2 C2          0.0840   -3.6680    4.4920 c         1 MOL      0.707379
      3 O1         -0.9060   -3.4290    3.7770 o         1 MOL     -0.585404
      4 H1          0.7670   -3.3040    6.4900 hc        1 MOL      0.136530
      5 H2         -0.9830   -3.5930    6.3490 hc        1 MOL      0.136530
      6 H3          0.1580   -4.9520    6.2070 hc        1 MOL      0.136530
      7 N1          1.3330   -3.7050    4.0380 n         1 MOL     -0.489346
      8 C3          1.7930   -3.3370    2.6980 c3        1 MOL      0.010195
      9 C4          2.1880   -4.5410    1.9270 c         1 MOL      0.534452
     10 O2          2.9240   -5.3640    2.4600 o         1 MOL     -0.520891
     11 C5          2.9220   -2.2670    2.8580 c3        1 MOL     -0.105977
     12 C6          3.3920   -1.5950    1.5250 c         1 MOL      0.927553
     13 O3          4.1060   -0.6120    1.4820 o         1 MOL     -0.805977
     14 O4          3.0590   -2.0600    0.4300 o         1 MOL     -0.805977
     15 H4          2.1040   -3.6680    4.6870 hn        1 MOL      0.297832
     16 H5          0.9540   -2.8860    2.1800 h1        1 MOL     -0.019384
     17 H6          3.8830   -2.5850    3.2560 hc        1 MOL      0.045802
     18 H7          2.6470   -1.4630    3.5240 hc        1 MOL      0.045802
     19 N2          1.6940   -4.7640    0.6610 n         1 MOL     -0.332407
     20 C7          2.1210   -5.9170   -0.1400 c3        1 MOL     -0.082769
     21 C8          3.3420   -5.6260   -0.9800 c         1 MOL      0.507602
     22 O5          3.9400   -6.6420   -1.4250 o         1 MOL     -0.555379
     23 C9          1.0530   -6.1870   -1.1840 c3        1 MOL      0.022713
     24 C10        -0.2000   -6.7370   -0.3870 c3        1 MOL     -0.084784
     25 C11        -1.4480   -7.1660   -1.1930 c3        1 MOL      0.003183
     26 C12        -2.0970   -6.0890   -2.0500 c3        1 MOL      0.066562
     27 N3         -3.1690   -6.6920   -2.9730 n4        1 MOL     -0.344388
     28 H8          1.0530   -4.0910    0.2720 hn        1 MOL      0.259381
     29 H9          2.2460   -6.7670    0.5270 h1        1 MOL      0.141808
     30 H10         1.5110   -6.8850   -1.8820 hc        1 MOL      0.032052
     31 H11         0.8110   -5.3000   -1.7670 hc        1 MOL      0.032052
     32 H12        -0.5790   -5.9260    0.2360 hc        1 MOL      0.048291
     33 H13         0.0790   -7.5970    0.2260 hc        1 MOL      0.048291
     34 H14        -2.2250   -7.5280   -0.5140 hc        1 MOL      0.020168
     35 H15        -1.1790   -8.0630   -1.7570 hc        1 MOL      0.020168
     36 H16        -1.2600   -5.5490   -2.4770 hx        1 MOL      0.062172
     37 H17        -2.5770   -5.4400   -1.3170 hx        1 MOL      0.062172
     38 H18        -2.7280   -6.9230   -3.8520 hn        1 MOL      0.273827
     39 H19        -3.6300   -7.4530   -2.4900 hn        1 MOL      0.273827
     40 H20        -3.9000   -5.9990   -3.1270 hn        1 MOL      0.273827
     41 N4          3.7670   -4.3780   -1.2600 n         1 MOL     -0.281766
     42 C13         4.9360   -4.0630   -2.1160 c3        1 MOL      0.100939
     43 C14         6.1720   -3.5080   -1.3660 c         1 MOL      0.329795
     44 O6          7.3380   -3.7600   -1.7540 o         1 MOL     -0.515930
     45 C15         4.5630   -3.1120   -3.2310 c3        1 MOL     -0.251246
     46 C16         4.1060   -1.7480   -2.7800 c         1 MOL      0.674474
     47 O7          2.8470   -1.5500   -2.8100 o         1 MOL     -0.709022
     48 O8          4.7980   -0.9040   -2.1520 o         1 MOL     -0.709022
     49 H21         3.2970   -3.6270   -0.7730 hn        1 MOL      0.142757
     50 H22         5.2600   -4.9790   -2.6060 h1        1 MOL      0.096005
     51 H23         3.7860   -3.5500   -3.8480 hc        1 MOL      0.076869
     52 H24         5.4790   -2.9900   -3.8070 hc        1 MOL      0.076869
     53 N5          5.9080   -2.8580   -0.2600 n         1 MOL      0.030762
     54 C17         6.8020   -2.4090    0.7210 c3        1 MOL     -0.419115
     55 C18         7.3970   -0.9820    0.4560 c         1 MOL      0.639051
     56 O9          8.3580   -0.5860    1.0800 o         1 MOL     -0.562940
     57 H25         4.9530   -2.5700   -0.1580 hn        1 MOL      0.063809
     58 H26         7.6950   -3.0420    0.6760 h1        1 MOL      0.167342
     59 H27         6.3870   -2.5080    1.7260 h1        1 MOL      0.167342
     60 N6          6.8520   -0.1750   -0.4850 n         1 MOL     -0.295062
     61 C19         7.2860    1.1780   -0.8550 c3        1 MOL      0.240857
     62 C20         6.0220    2.2220   -0.6440 c         1 MOL      0.388306
     63 O10         4.8730    1.7780   -0.5170 o         1 MOL     -0.423609
     64 C21         7.8690    1.2100   -2.2550 c3        1 MOL     -0.305302
     65 C22         9.1600    0.3850   -2.4030 c         1 MOL      0.611593
     66 N7          9.1300   -0.5870   -3.2900 n         1 MOL     -0.793532
     67 O11        10.1720    0.5310   -1.7000 o         1 MOL     -0.519040
     68 H28         6.1640   -0.6030   -1.0780 hn        1 MOL      0.196077
     69 H29         8.0460    1.5500   -0.1660 h1        1 MOL      0.013732
     70 H30         7.9570    2.2660   -2.5130 hc        1 MOL      0.053547
     71 H31         7.1830    0.8680   -3.0310 hc        1 MOL      0.053547
     72 H32         8.2510   -0.6920   -3.7780 hn        1 MOL      0.390929
     73 H33         9.9470   -1.1690   -3.3540 hn        1 MOL      0.390929
     74 N8          6.3080    3.5420   -0.7400 n         1 MOL     -0.392369
     75 C23         5.2420    4.5600   -0.7070 c3        1 MOL      0.005396
     76 C24         4.3160    4.5590    0.4920 c         1 MOL      0.584620
     77 O12         4.7520    4.3410    1.6170 o         1 MOL     -0.507028
     78 H34         7.2850    3.7220   -0.9240 hn        1 MOL      0.316112
     79 H35         4.5540    4.5140   -1.5600 h1        1 MOL      0.029074
     80 H36         5.7370    5.5210   -0.7610 h1        1 MOL      0.029074
     81 N9          3.0860    4.9070    0.1670 n         1 MOL     -0.512391
     82 C25         1.8810    4.7220    1.0570 c3        1 MOL      0.310690
     83 C26         1.4550    3.1810    1.1990 c         1 MOL      0.597514
     84 O13         1.9640    2.3330    0.4650 o         1 MOL     -0.618214
     85 C27         0.8730    5.7720    0.4200 c3        1 MOL     -0.033009
     86 C28         1.4430    7.1520    0.1090 ca        1 MOL      0.094164
     87 C29         1.6440    7.6700   -1.1900 ca        1 MOL     -0.214719
     88 C30         1.9130    7.9210    1.1870 ca        1 MOL     -0.214719
     89 C31         2.2380    8.9310   -1.3830 ca        1 MOL     -0.184649
     90 C32         2.4050    9.2520    0.9720 ca        1 MOL     -0.184649
     91 C33         2.5910    9.7490   -0.3110 ca        1 MOL      0.270388
     92 O14         3.3080   10.9420   -0.5060 oh        1 MOL     -0.451537
     93 H37         2.8690    4.9870   -0.8170 hn        1 MOL      0.228739
     94 H38         2.0350    5.1020    2.0610 h1        1 MOL      0.021664
     95 H39         0.0230    5.8460    1.1020 hc        1 MOL     -0.007304
     96 H40         0.5240    5.2610   -0.4790 hc        1 MOL     -0.007304
     97 H41         1.2940    7.0740   -2.0190 ha        1 MOL      0.144385
     98 H42         1.8010    7.5700    2.2000 ha        1 MOL      0.144385
     99 H43         2.4110    9.2890   -2.3870 ha        1 MOL      0.143142
    100 H44         2.8110    9.8890    1.7500 ha        1 MOL      0.143142
    101 H45         3.4990   11.0650   -1.4370 ho        1 MOL      0.346011
    102 N10         0.5890    2.8740    2.1680 n         1 MOL     -0.808399
    103 C34         0.0510    1.5760    2.5940 c3        1 MOL      0.130732
    104 C35        -0.1360    0.5440    1.4130 c         1 MOL      0.792812
    105 O15         0.8110   -0.0270    0.8300 o         1 MOL     -0.635344
    106 C36         1.0210    0.9590    3.6270 c3        1 MOL      0.363613
    107 C37         0.5070   -0.1350    4.5440 c3        1 MOL     -0.032895
    108 C38         1.7510    2.0300    4.5150 c3        1 MOL     -0.458665
    109 C39        -0.6010    0.1570    5.4690 c3        1 MOL     -0.133378
    110 H46         0.2070    3.6470    2.7000 hn        1 MOL      0.374470
    111 H47        -0.9280    1.7970    3.0020 h1        1 MOL      0.056694
    112 H48         1.8460    0.4900    3.0790 hc        1 MOL     -0.010446
    113 H49         1.3930   -0.6080    4.9760 hc        1 MOL      0.020758
    114 H50         0.0510   -0.8220    3.8320 hc        1 MOL      0.020758
    115 H51         2.5140    2.6040    3.9800 hc        1 MOL      0.111275
    116 H52         1.0000    2.7330    4.8800 hc        1 MOL      0.111275
    117 H53         2.2900    1.5760    5.3510 hc        1 MOL      0.111275
    118 H54        -0.5330   -0.6310    6.2290 hc        1 MOL      0.021071
    119 H55        -0.5450    1.1370    5.9300 hc        1 MOL      0.021071
    120 H56        -1.5350    0.1610    4.9040 hc        1 MOL      0.021071
    121 N11        -1.3920    0.2330    1.0730 n         1 MOL     -0.526026
    122 C40        -1.9030   -0.8420    0.2430 c3        1 MOL     -0.342316
    123 C41        -3.1900   -0.5590   -0.4360 c         1 MOL      0.878035
    124 O16        -3.5210   -1.2450   -1.4110 o         1 MOL     -0.631766
    125 C42        -1.9290   -2.1710    1.0270 c3        1 MOL      0.343767
    126 O17        -2.6430   -2.0420    2.2190 oh        1 MOL     -0.593462
    127 H57        -2.1140    0.6150    1.6660 hn        1 MOL      0.242952
    128 H58        -1.2820   -1.0240   -0.6240 h1        1 MOL      0.143296
    129 H59        -0.9300   -2.4520    1.3420 h1        1 MOL     -0.018329
    130 H60        -2.2590   -3.0010    0.3960 h1        1 MOL     -0.018329
    131 H61        -2.2660   -2.6600    2.8410 ho        1 MOL      0.382783
    132 N12        -3.9940    0.3420    0.0640 n         1 MOL     -0.734757
    133 C43        -5.3340    0.4560   -0.4010 c3        1 MOL      0.296804
    134 C44        -5.4500    1.3190   -1.6620 c         1 MOL      0.562327
    135 O18        -4.5910    2.1450   -2.0750 o         1 MOL     -0.569877
    136 C45        -6.1780    1.1020    0.7290 c3        1 MOL     -0.433067
    137 H62        -3.7960    0.7960    0.9420 hn        1 MOL      0.395880
    138 H63        -5.6690   -0.5540   -0.6450 h1        1 MOL      0.087049
    139 H64        -5.6560    0.9380    1.6720 hc        1 MOL      0.124671
    140 H65        -6.3410    2.1800    0.6670 hc        1 MOL      0.124671
    141 H66        -7.1240    0.5690    0.7500 hc        1 MOL      0.124671
    142 N13        -6.6090    1.2600   -2.3650 n         1 MOL     -0.620305
    143 C46        -7.7440    0.3830   -2.1280 c3        1 MOL      0.343543
    144 C47        -9.1040    1.0310   -2.6990 c         1 MOL      0.305680
    145 O19        -9.0210    1.7640   -3.6940 o         1 MOL     -0.497762
    146 C48        -7.5450   -0.9210   -2.9080 c3        1 MOL     -0.166265
    147 H67        -6.5950    1.9350   -3.1240 hn        1 MOL      0.345768
    148 H68        -7.8600    0.1660   -1.0760 h1        1 MOL     -0.049645
    149 H69        -7.6250   -0.8060   -3.9910 hc        1 MOL      0.048627
    150 H70        -6.5700   -1.3180   -2.6240 hc        1 MOL      0.048627
    151 H71        -8.3230   -1.6010   -2.5360 hc        1 MOL      0.048627
    152 N14       -10.3200    0.7730   -2.2070 n         1 MOL     -0.266074
    153 C49       -10.6410    0.3200   -0.8270 c3        1 MOL     -0.351185
    154 C50       -10.2330    1.2450    0.3720 c         1 MOL      0.607890
    155 O20       -10.1480    0.8100    1.4900 o         1 MOL     -0.525892
    156 C51       -12.1540   -0.0120   -0.8820 c3        1 MOL      0.034095
    157 C52       -12.7910   -0.7090    0.3420 c3        1 MOL     -0.219999
    158 C53       -14.2940   -0.8030    0.1150 c         1 MOL      0.719008
    159 O21       -14.9460    0.2380    0.3060 o         1 MOL     -0.661400
    160 O22       -14.8180   -1.8880   -0.2030 o         1 MOL     -0.661400
    161 H72       -11.1230    1.0970   -2.7150 hn        1 MOL      0.280635
    162 H73       -10.1150   -0.6220   -0.6470 h1        1 MOL      0.168024
    163 H74       -12.3400   -0.6840   -1.7250 hc        1 MOL      0.039613
    164 H75       -12.6870    0.9160   -1.1100 hc        1 MOL      0.039613
    165 H76       -12.6560   -0.1760    1.2760 hc        1 MOL      0.055019
    166 H77       -12.3210   -1.6800    0.4830 hc        1 MOL      0.055019
    167 N15       -10.0170    2.5620    0.0820 n         1 MOL     -0.350700
    168 C54        -9.6080    3.5550    1.1320 c3        1 MOL     -0.082607
    169 H78        -8.5650    3.8320    0.9830 h1        1 MOL      0.074485
    170 H79       -10.2350    4.4440    1.0550 h1        1 MOL      0.074485
    171 H80        -9.7280    3.1090    2.1200 h1        1 MOL      0.074485
    172 H81       -10.2800    2.9160   -0.8220 hn        1 MOL      0.282057
    173 Ca1         2.7750    0.1930   -0.9020 Ca        1 MOL      1.771005
    174 O23         3.2410    2.0210   -2.7580 oh        1 MOL     -0.882313
    175 H82         2.5610    2.6870   -2.8070 ho        1 MOL      0.437482
    176 H83         4.0020    2.4230   -3.1760 ho        1 MOL      0.437482
    177 O24         0.3980    0.6110   -2.2090 oh        1 MOL     -0.882313
    178 H84         0.3370    0.6070   -3.1660 ho        1 MOL      0.437482
    179 H85        -0.3690    1.1150   -1.9140 ho        1 MOL      0.437482
@<TRIPOS>BOND
     1    1    2 1   
     2    1    4 1   
     3    1    5 1   
     4    1    6 1   
     5    2    3 2   
     6    2    7 1   
     7    7    8 1   
     8    7   15 1   
     9    8    9 1   
    10    8   11 1   
    11    8   16 1   
    12    9   10 2   
    13    9   19 1   
    14   11   12 1   
    15   11   17 1   
    16   11   18 1   
    17   12   13 1   
    18   12   14 1   
    19   19   20 1   
    20   19   28 1   
    21   20   21 1   
    22   20   23 1   
    23   20   29 1   
    24   21   22 2   
    25   21   41 1   
    26   23   24 1   
    27   23   30 1   
    28   23   31 1   
    29   24   25 1   
    30   24   32 1   
    31   24   33 1   
    32   25   26 1   
    33   25   34 1   
    34   25   35 1   
    35   26   27 1   
    36   26   36 1   
    37   26   37 1   
    38   27   38 1   
    39   27   39 1   
    40   27   40 1   
    41   41   42 1   
    42   41   49 1   
    43   42   43 1   
    44   42   45 1   
    45   42   50 1   
    46   43   44 2   
    47   43   53 1   
    48   45   46 1   
    49   45   51 1   
    50   45   52 1   
    51   46   47 1   
    52   46   48 1   
    53   53   54 1   
    54   53   57 1   
    55   54   55 1   
    56   54   58 1   
    57   54   59 1   
    58   55   56 2   
    59   55   60 1   
    60   60   61 1   
    61   60   68 1   
    62   61   62 1   
    63   61   64 1   
    64   61   69 1   
    65   62   63 2   
    66   62   74 1   
    67   64   65 1   
    68   64   70 1   
    69   64   71 1   
    70   65   66 1   
    71   65   67 2   
    72   66   72 1   
    73   66   73 1   
    74   74   75 1   
    75   74   78 1   
    76   75   76 1   
    77   75   79 1   
    78   75   80 1   
    79   76   77 2   
    80   76   81 1   
    81   81   82 1   
    82   81   93 1   
    83   82   83 1   
    84   82   85 1   
    85   82   94 1   
    86   83   84 2   
    87   83  102 1   
    88   85   86 1   
    89   85   95 1   
    90   85   96 1   
    91   86   87 ar  
    92   86   88 ar  
    93   87   89 ar  
    94   87   97 1   
    95   88   90 ar  
    96   88   98 1   
    97   89   91 ar  
    98   89   99 1   
    99   90   91 ar  
   100   90  100 1   
   101   91   92 1   
   102   92  101 1   
   103  102  103 1   
   104  102  110 1   
   105  103  104 1   
   106  103  106 1   
   107  103  111 1   
   108  104  105 2   
   109  104  121 1   
   110  106  107 1   
   111  106  108 1   
   112  106  112 1   
   113  107  109 1   
   114  107  113 1   
   115  107  114 1   
   116  108  115 1   
   117  108  116 1   
   118  108  117 1   
   119  109  118 1   
   120  109  119 1   
   121  109  120 1   
   122  121  122 1   
   123  121  127 1   
   124  122  123 1   
   125  122  125 1   
   126  122  128 1   
   127  123  124 2   
   128  123  132 1   
   129  125  126 1   
   130  125  129 1   
   131  125  130 1   
   132  126  131 1   
   133  132  133 1   
   134  132  137 1   
   135  133  134 1   
   136  133  136 1   
   137  133  138 1   
   138  134  135 2   
   139  134  142 1   
   140  136  139 1   
   141  136  140 1   
   142  136  141 1   
   143  142  143 1   
   144  142  147 1   
   145  143  144 1   
   146  143  146 1   
   147  143  148 1   
   148  144  145 2   
   149  144  152 1   
   150  146  149 1   
   151  146  150 1   
   152  146  151 1   
   153  152  153 1   
   154  152  161 1   
   155  153  154 1   
   156  153  156 1   
   157  153  162 1   
   158  154  155 2   
   159  154  167 1   
   160  156  157 1   
   161  156  163 1   
   162  156  164 1   
   163  157  158 1   
   164  157  165 1   
   165  157  166 1   
   166  158  159 1   
   167  158  160 1   
   168  167  168 1   
   169  167  172 1   
   170  168  169 1   
   171  168  170 1   
   172  168  171 1   
   173  174  175 1   
   174  174  176 1   
   175  177  178 1   
   176  177  179 1   
@<TRIPOS>SUBSTRUCTURE
     1 MOL         1 TEMP              0 ****  ****    0 ROOT
