@<TRIPOS>MOLECULE
MOL
  189   185     1     0     0
SMALL
resp


@<TRIPOS>ATOM
      1 C1        -12.5030    4.0530    4.3990 c3        1 MOL     -0.318972
      2 C2        -12.5280    3.2720    3.0870 c         1 MOL      0.613295
      3 O1        -13.0800    2.1750    3.0570 o         1 MOL     -0.564006
      4 H1        -13.0050    3.4760    5.1750 hc        1 MOL      0.084208
      5 H2        -11.4690    4.2350    4.6940 hc        1 MOL      0.084208
      6 H3        -13.0160    5.0060    4.2660 hc        1 MOL      0.084208
      7 N1        -12.0890    3.9300    2.0060 n         1 MOL     -0.422384
      8 C3        -11.9120    3.3990    0.6740 c3        1 MOL      0.074285
      9 C4        -11.0060    2.2070    0.5260 c         1 MOL      0.539635
     10 O2        -10.0180    2.0590    1.2690 o         1 MOL     -0.509769
     11 C5        -11.4690    4.4740   -0.2580 c3        1 MOL     -0.523802
     12 C6        -10.2420    5.2160    0.3180 c         1 MOL      0.881669
     13 O3         -9.1520    4.8510   -0.1040 o         1 MOL     -0.732607
     14 O4        -10.4410    6.2180    1.0860 o         1 MOL     -0.732607
     15 H4        -11.6300    4.8120    2.1860 hn        1 MOL      0.270096
     16 H5        -12.8910    3.0680    0.3420 h1        1 MOL      0.066580
     17 H6        -12.2610    5.2200   -0.3780 hc        1 MOL      0.165748
     18 H7        -11.2550    4.0300   -1.2300 hc        1 MOL      0.165748
     19 N2        -11.3540    1.3410   -0.4770 n         1 MOL     -0.677550
     20 C7        -10.9040   -0.0360   -0.3920 c3        1 MOL      0.278116
     21 C8         -9.5380   -0.3280   -1.0640 c         1 MOL      0.217217
     22 O5         -9.1740   -1.4060   -1.5340 o         1 MOL     -0.502252
     23 C9        -11.9690   -1.1090   -0.7990 c3        1 MOL      0.104554
     24 C10       -12.3970   -1.4000   -2.2730 c3        1 MOL     -0.077462
     25 C11       -13.5570   -2.4380   -2.3070 c3        1 MOL     -0.117168
     26 C12       -13.0050   -3.8210   -1.9190 c3        1 MOL      0.156568
     27 N3        -13.9340   -4.9060   -2.3200 n4        1 MOL     -0.322662
     28 H8        -12.0950    1.5560   -1.1250 hn        1 MOL      0.354931
     29 H9        -10.6430   -0.2180    0.6570 h1        1 MOL      0.063133
     30 H10       -12.8100   -0.7040   -0.2300 hc        1 MOL     -0.030199
     31 H11       -11.7490   -2.0780   -0.3370 hc        1 MOL     -0.030199
     32 H12       -11.5720   -1.7950   -2.8670 hc        1 MOL      0.064375
     33 H13       -12.7450   -0.4360   -2.6510 hc        1 MOL      0.064375
     34 H14       -13.9250   -2.5010   -3.3300 hc        1 MOL      0.039401
     35 H15       -14.3570   -2.2170   -1.6070 hc        1 MOL      0.039401
     36 H16       -12.8990   -3.8120   -0.8410 hx        1 MOL      0.068157
     37 H17       -12.0190   -4.0100   -2.3340 hx        1 MOL      0.068157
     38 H18       -14.8780   -4.7450   -2.0100 hn        1 MOL      0.272384
     39 H19       -13.9740   -4.8500   -3.3310 hn        1 MOL      0.272384
     40 H20       -13.6610   -5.8360   -2.0380 hn        1 MOL      0.272384
     41 N4         -8.6570    0.7110   -1.0230 n         1 MOL      0.049316
     42 C13        -7.2500    0.7150   -1.5600 c3        1 MOL     -0.056115
     43 C14        -6.2620    1.2330   -0.4280 c         1 MOL      0.228387
     44 O6         -6.5950    2.1670    0.3410 o         1 MOL     -0.688580
     45 C15        -6.9420    1.4990   -2.8130 c3        1 MOL     -0.564050
     46 C16        -7.4690    2.9450   -2.7910 c         1 MOL      0.837799
     47 O7         -8.4390    3.2900   -3.5300 o         1 MOL     -0.729637
     48 O8         -6.9580    3.7650   -1.9600 o         1 MOL     -0.729637
     49 H21        -9.0430    1.5320   -0.5930 hn        1 MOL      0.217019
     50 H22        -7.0930   -0.3500   -1.7410 h1        1 MOL      0.186452
     51 H23        -7.4360    1.0360   -3.6690 hc        1 MOL      0.181552
     52 H24        -5.8920    1.4360   -3.0740 hc        1 MOL      0.181552
     53 N5         -5.0810    0.6270   -0.1540 n         1 MOL     -0.076759
     54 C17        -4.3630   -0.4100   -0.9810 c3        1 MOL     -0.300274
     55 C18        -4.5200   -1.7870   -0.3600 c         1 MOL      0.636468
     56 O9         -5.3520   -2.0420    0.4900 o         1 MOL     -0.517802
     57 H25        -4.5180    1.0830    0.5470 hn        1 MOL      0.223240
     58 H26        -3.3230   -0.0640   -0.9960 h1        1 MOL      0.127920
     59 H27        -4.7400   -0.5040   -1.9940 h1        1 MOL      0.127920
     60 N6         -3.6760   -2.7110   -0.8450 n         1 MOL     -0.528904
     61 C19        -3.7160   -4.1120   -0.4480 c3        1 MOL      0.202323
     62 C20        -2.3870   -4.8750   -0.7440 c         1 MOL      0.440610
     63 O10        -1.4740   -4.3680   -1.3260 o         1 MOL     -0.438710
     64 C21        -4.8850   -4.8470   -1.1260 c3        1 MOL     -0.272388
     65 C22        -4.8940   -4.4640   -2.6370 c         1 MOL      0.715200
     66 O11        -5.7990   -3.7480   -3.1610 o         1 MOL     -0.655420
     67 O12        -3.9490   -4.8700   -3.2740 o         1 MOL     -0.655420
     68 H28        -2.9900   -2.4270   -1.5200 hn        1 MOL      0.317305
     69 H29        -3.8800   -4.1590    0.6260 h1        1 MOL      0.000864
     70 H30        -5.7920   -4.4570   -0.6590 hc        1 MOL      0.033454
     71 H31        -4.7200   -5.9230   -1.0440 hc        1 MOL      0.033454
     72 N7         -2.3300   -6.1440   -0.3390 n         1 MOL     -0.346940
     73 C23        -1.1460   -7.0040   -0.4800 c3        1 MOL      0.058662
     74 C24         0.1540   -6.6010    0.1430 c         1 MOL      0.453564
     75 O13         1.2720   -6.9120   -0.2220 o         1 MOL     -0.535394
     76 H32        -3.1160   -6.6040    0.0720 hn        1 MOL      0.254462
     77 H33        -0.8400   -7.3260   -1.4800 h1        1 MOL      0.050306
     78 H34        -1.3080   -7.9890   -0.0530 h1        1 MOL      0.050306
     79 N8          0.0540   -5.7090    1.2020 n         1 MOL     -0.170137
     80 C25         1.1660   -5.0510    1.8270 c3        1 MOL     -0.166941
     81 C26         1.2020   -3.5870    1.3480 c         1 MOL      0.624923
     82 O14         0.1490   -2.9640    1.1420 o         1 MOL     -0.588265
     83 C27         1.0930   -5.1030    3.3530 c3        1 MOL      0.526194
     84 C28        -0.2860   -4.7700    4.0410 c3        1 MOL     -0.420492
     85 O15         1.4860   -6.3770    3.7640 oh        1 MOL     -0.627271
     86 H35        -0.8850   -5.8240    1.5740 hn        1 MOL      0.119049
     87 H36         2.0810   -5.5530    1.4870 h1        1 MOL      0.073186
     88 H37         1.8150   -4.3740    3.7150 h1        1 MOL     -0.071842
     89 H38         2.3900   -6.2600    4.0440 ho        1 MOL      0.368650
     90 H39        -0.1360   -4.9470    5.1050 hc        1 MOL      0.114077
     91 H40        -0.4000   -3.6870    3.9070 hc        1 MOL      0.114077
     92 H41        -1.0700   -5.4290    3.6660 hc        1 MOL      0.114077
     93 N9          2.3620   -2.9200    1.3030 n         1 MOL     -0.385011
     94 C29         2.6770   -1.5300    1.0970 c3        1 MOL     -0.126463
     95 C30         3.9110   -1.3160    0.3550 c         1 MOL      0.598000
     96 O16         4.0210   -0.3130   -0.4500 o         1 MOL     -0.527464
     97 C31         2.7820   -0.6670    2.4020 c3        1 MOL      0.191797
     98 C32         1.8320   -1.0440    3.5510 c3        1 MOL      0.110733
     99 C33         2.5210    0.7870    2.0610 c3        1 MOL     -0.277528
    100 C34         2.1370   -0.6200    4.9760 c3        1 MOL     -0.238973
    101 H42         3.1260   -3.5140    1.5960 hn        1 MOL      0.195529
    102 H43         1.9610   -1.0720    0.4250 h1        1 MOL      0.151015
    103 H44         3.7740   -0.8530    2.7960 hc        1 MOL     -0.034938
    104 H45         1.8470   -2.1350    3.6310 hc        1 MOL     -0.001327
    105 H46         0.7850   -0.8460    3.3360 hc        1 MOL     -0.001327
    106 H47         3.2850    1.1830    1.3910 hc        1 MOL      0.064648
    107 H48         1.5210    0.7120    1.6300 hc        1 MOL      0.064648
    108 H49         2.4780    1.3680    2.9860 hc        1 MOL      0.064648
    109 H50         3.2140   -0.6180    5.1720 hc        1 MOL      0.050892
    110 H51         1.7160    0.3670    5.1300 hc        1 MOL      0.050892
    111 H52         1.6500   -1.3100    5.6610 hc        1 MOL      0.050892
    112 N10         4.9550   -2.1850    0.5690 n         1 MOL     -0.461423
    113 C35         6.2870   -2.3180   -0.1060 c3        1 MOL      0.019649
    114 C36         7.5020   -2.4760    0.8040 c         1 MOL      0.573829
    115 O17         7.4200   -3.0580    1.9300 o         1 MOL     -0.524323
    116 C37         6.2290   -3.4190   -1.1920 c3        1 MOL      0.377054
    117 C38         5.6130   -4.7200   -0.7420 c3        1 MOL     -0.304672
    118 O18         5.4130   -2.9760   -2.1550 oh        1 MOL     -0.624607
    119 H53         4.7920   -2.8300    1.3300 hn        1 MOL      0.249332
    120 H54         6.4080   -1.3610   -0.6190 h1        1 MOL      0.089367
    121 H55         7.2330   -3.5570   -1.5930 h1        1 MOL     -0.041926
    122 H56         5.2530   -3.6170   -2.8610 ho        1 MOL      0.421177
    123 H57         5.5450   -5.3470   -1.6340 hc        1 MOL      0.078804
    124 H58         6.2560   -5.1140    0.0430 hc        1 MOL      0.078804
    125 H59         4.6380   -4.4540   -0.3310 hc        1 MOL      0.078804
    126 N11         8.6590   -1.9980    0.3280 n         1 MOL     -0.620576
    127 C39         9.9490   -2.0960    1.0440 c3        1 MOL      0.066964
    128 C40        10.6900   -0.8190    1.3310 c         1 MOL      0.712083
    129 O19        11.2710   -0.7010    2.4040 o         1 MOL     -0.562582
    130 C41        10.8230   -3.1170    0.2300 c3        1 MOL      0.389250
    131 C42        12.1180   -3.4130    0.9220 c3        1 MOL     -0.499770
    132 O20        11.2140   -2.6420   -1.0670 oh        1 MOL     -0.663618
    133 H60         8.7070   -1.4400   -0.5110 hn        1 MOL      0.346571
    134 H61         9.8220   -2.4650    2.0670 h1        1 MOL      0.082850
    135 H62        10.3120   -4.0710    0.1540 h1        1 MOL      0.023929
    136 H63        12.0160   -3.0720   -1.3620 ho        1 MOL      0.389997
    137 H64        12.5780   -4.3290    0.5360 hc        1 MOL      0.124937
    138 H65        12.8180   -2.6190    0.6890 hc        1 MOL      0.124937
    139 H66        11.9020   -3.4980    1.9890 hc        1 MOL      0.124937
    140 N12        10.6830    0.1230    0.3310 n         1 MOL     -0.621611
    141 C43        11.5050    1.4000    0.5530 c3        1 MOL      0.085058
    142 C44        10.8980    2.4820   -0.2930 c         1 MOL      0.370862
    143 O21        10.5750    2.2000   -1.4690 o         1 MOL     -0.495048
    144 C45        12.9730    1.2640    0.1390 c3        1 MOL     -0.204934
    145 C46        13.2990    0.4380   -1.1360 c3        1 MOL      0.135961
    146 C47        14.8120    0.3360   -1.3060 c3        1 MOL      0.007960
    147 C48        14.9710   -0.6430   -2.4280 c3        1 MOL      0.052871
    148 N13        16.3170   -0.6810   -3.0310 n4        1 MOL     -0.263875
    149 H67        10.3700   -0.0600   -0.6100 hn        1 MOL      0.337646
    150 H68        11.5880    1.7410    1.5840 h1        1 MOL      0.095878
    151 H69        13.5860    0.8010    0.9200 hc        1 MOL      0.065545
    152 H70        13.3020    2.2930    0.0530 hc        1 MOL      0.065545
    153 H71        12.8540    0.8730   -2.0310 hc        1 MOL      0.008803
    154 H72        12.8050   -0.5270   -1.0180 hc        1 MOL      0.008803
    155 H73        15.2540    0.0050   -0.3640 hc        1 MOL      0.015186
    156 H74        15.1580    1.3450   -1.5170 hc        1 MOL      0.015186
    157 H75        14.2440   -0.4430   -3.2260 hx        1 MOL      0.051082
    158 H76        14.8250   -1.5770   -1.9070 hx        1 MOL      0.051082
    159 H77        17.0430   -0.7220   -2.3260 hn        1 MOL      0.247085
    160 H78        16.3740   -1.3990   -3.7450 hn        1 MOL      0.247085
    161 H79        16.4110    0.2020   -3.5250 hn        1 MOL      0.247085
    162 N14        10.8680    3.7300    0.1200 n         1 MOL     -0.249241
    163 C49        10.4280    4.7640   -0.7460 c3        1 MOL      0.122068
    164 C50         8.9450    4.7680   -1.2020 c         1 MOL      0.409439
    165 O22         8.6980    4.8850   -2.3830 o         1 MOL     -0.521263
    166 C51        11.0320    6.1540   -0.2480 c3        1 MOL     -0.003300
    167 C52        10.7350    7.2860   -1.1890 c3        1 MOL     -0.115437
    168 C53        11.2830    8.5450   -0.6230 c         1 MOL      0.664174
    169 O23        10.4400    9.3870   -0.1800 o         1 MOL     -0.647819
    170 O24        12.5200    8.6500   -0.5110 o         1 MOL     -0.647819
    171 H80        11.2370    3.9730    1.0220 hn        1 MOL      0.215462
    172 H81        10.9280    4.4930   -1.6700 h1        1 MOL      0.047372
    173 H82        12.1060    5.9990   -0.1110 hc        1 MOL      0.008782
    174 H83        10.6010    6.4530    0.7080 hc        1 MOL      0.008782
    175 H84         9.6470    7.3050   -1.3110 hc        1 MOL      0.021381
    176 H85        11.1820    7.1020   -2.1650 hc        1 MOL      0.021381
    177 N15         7.9000    4.5020   -0.3780 n         1 MOL     -0.344610
    178 C54         7.8240    4.5070    1.1070 c3        1 MOL      0.011126
    179 H86         7.1510    3.7170    1.4390 h1        1 MOL      0.037763
    180 H87         8.8170    4.3350    1.5230 h1        1 MOL      0.037763
    181 H88         7.4480    5.4710    1.4490 h1        1 MOL      0.037763
    182 H89         7.0010    4.4120   -0.8270 hn        1 MOL      0.285930
    183 Ca1        -6.6760    4.8820    0.5210 Ca        1 MOL      1.791193
    184 O25        -8.1380    3.7740    2.4790 oh        1 MOL     -0.998926
    185 H90        -8.0170    3.4140    3.3580 ho        1 MOL      0.477075
    186 H91        -8.7480    3.1720    2.0620 ho        1 MOL      0.477075
    187 O26        -7.2580    7.2910   -0.2590 oh        1 MOL     -0.998926
    188 H92        -6.8910    7.8050   -0.9720 ho        1 MOL      0.477075
    189 H93        -8.0460    7.7620   -0.0040 ho        1 MOL      0.477075
@<TRIPOS>BOND
     1    1    2 1   
     2    1    4 1   
     3    1    5 1   
     4    1    6 1   
     5    2    3 2   
     6    2    7 1   
     7    7    8 1   
     8    7   15 1   
     9    8    9 1   
    10    8   11 1   
    11    8   16 1   
    12    9   10 2   
    13    9   19 1   
    14   11   12 1   
    15   11   17 1   
    16   11   18 1   
    17   12   13 1   
    18   12   14 1   
    19   19   20 1   
    20   19   28 1   
    21   20   21 1   
    22   20   23 1   
    23   20   29 1   
    24   21   22 2   
    25   21   41 1   
    26   23   24 1   
    27   23   30 1   
    28   23   31 1   
    29   24   25 1   
    30   24   32 1   
    31   24   33 1   
    32   25   26 1   
    33   25   34 1   
    34   25   35 1   
    35   26   27 1   
    36   26   36 1   
    37   26   37 1   
    38   27   38 1   
    39   27   39 1   
    40   27   40 1   
    41   41   42 1   
    42   41   49 1   
    43   42   43 1   
    44   42   45 1   
    45   42   50 1   
    46   43   44 2   
    47   43   53 1   
    48   45   46 1   
    49   45   51 1   
    50   45   52 1   
    51   46   47 1   
    52   46   48 1   
    53   53   54 1   
    54   53   57 1   
    55   54   55 1   
    56   54   58 1   
    57   54   59 1   
    58   55   56 2   
    59   55   60 1   
    60   60   61 1   
    61   60   68 1   
    62   61   62 1   
    63   61   64 1   
    64   61   69 1   
    65   62   63 2   
    66   62   72 1   
    67   64   65 1   
    68   64   70 1   
    69   64   71 1   
    70   65   66 1   
    71   65   67 1   
    72   72   73 1   
    73   72   76 1   
    74   73   74 1   
    75   73   77 1   
    76   73   78 1   
    77   74   75 2   
    78   74   79 1   
    79   79   80 1   
    80   79   86 1   
    81   80   81 1   
    82   80   83 1   
    83   80   87 1   
    84   81   82 2   
    85   81   93 1   
    86   83   84 1   
    87   83   85 1   
    88   83   88 1   
    89   84   90 1   
    90   84   91 1   
    91   84   92 1   
    92   85   89 1   
    93   93   94 1   
    94   93  101 1   
    95   94   95 1   
    96   94   97 1   
    97   94  102 1   
    98   95   96 2   
    99   95  112 1   
   100   97   98 1   
   101   97   99 1   
   102   97  103 1   
   103   98  100 1   
   104   98  104 1   
   105   98  105 1   
   106   99  106 1   
   107   99  107 1   
   108   99  108 1   
   109  100  109 1   
   110  100  110 1   
   111  100  111 1   
   112  112  113 1   
   113  112  119 1   
   114  113  114 1   
   115  113  116 1   
   116  113  120 1   
   117  114  115 2   
   118  114  126 1   
   119  116  117 1   
   120  116  118 1   
   121  116  121 1   
   122  117  123 1   
   123  117  124 1   
   124  117  125 1   
   125  118  122 1   
   126  126  127 1   
   127  126  133 1   
   128  127  128 1   
   129  127  130 1   
   130  127  134 1   
   131  128  129 2   
   132  128  140 1   
   133  130  131 1   
   134  130  132 1   
   135  130  135 1   
   136  131  137 1   
   137  131  138 1   
   138  131  139 1   
   139  132  136 1   
   140  140  141 1   
   141  140  149 1   
   142  141  142 1   
   143  141  144 1   
   144  141  150 1   
   145  142  143 2   
   146  142  162 1   
   147  144  145 1   
   148  144  151 1   
   149  144  152 1   
   150  145  146 1   
   151  145  153 1   
   152  145  154 1   
   153  146  147 1   
   154  146  155 1   
   155  146  156 1   
   156  147  148 1   
   157  147  157 1   
   158  147  158 1   
   159  148  159 1   
   160  148  160 1   
   161  148  161 1   
   162  162  163 1   
   163  162  171 1   
   164  163  164 1   
   165  163  166 1   
   166  163  172 1   
   167  164  165 2   
   168  164  177 1   
   169  166  167 1   
   170  166  173 1   
   171  166  174 1   
   172  167  168 1   
   173  167  175 1   
   174  167  176 1   
   175  168  169 1   
   176  168  170 1   
   177  177  178 1   
   178  177  182 1   
   179  178  179 1   
   180  178  180 1   
   181  178  181 1   
   182  184  185 1   
   183  184  186 1   
   184  187  188 1   
   185  187  189 1   
@<TRIPOS>SUBSTRUCTURE
     1 MOL         1 TEMP              0 ****  ****    0 ROOT
