@<TRIPOS>MOLECULE
MOL
  181   177     1     0     0
SMALL
resp


@<TRIPOS>ATOM
      1 C1          1.7210   -2.0660    5.3750 c3        1 MOL     -0.369077
      2 C2          2.9090   -1.4780    4.5550 c         1 MOL      0.631716
      3 O1          2.8120   -0.4160    3.8880 o         1 MOL     -0.567632
      4 H1          0.8250   -1.4720    5.1930 hc        1 MOL      0.093629
      5 H2          1.5420   -3.0970    5.0680 hc        1 MOL      0.093629
      6 H3          1.9630   -2.0400    6.4380 hc        1 MOL      0.093629
      7 N1          4.0090   -2.2370    4.5550 n         1 MOL     -0.498276
      8 C3          5.1660   -1.8160    3.7750 c3        1 MOL      0.101065
      9 C4          5.0520   -2.1250    2.2560 c         1 MOL      0.542278
     10 O2          5.9090   -1.6900    1.4960 o         1 MOL     -0.595041
     11 C5          6.5910   -2.2850    4.1810 c3        1 MOL     -0.274368
     12 C6          7.1010   -2.3830    5.6390 c         1 MOL      0.748924
     13 O3          6.6900   -1.5020    6.4290 o         1 MOL     -0.740544
     14 O4          7.8790   -3.2640    5.9660 o         1 MOL     -0.740544
     15 H4          3.9910   -3.0640    5.1250 hn        1 MOL      0.321941
     16 H5          5.2080   -0.7220    3.7750 h1        1 MOL      0.070027
     17 H6          7.3440   -1.8470    3.5280 hc        1 MOL      0.062015
     18 H7          6.5110   -3.3090    3.8250 hc        1 MOL      0.062015
     19 N2          4.2050   -3.0360    1.8170 n         1 MOL     -0.489278
     20 C7          4.1680   -3.8280    0.5890 c3        1 MOL      0.267988
     21 C8          4.2150   -2.9920   -0.6690 c         1 MOL      0.556888
     22 O5          3.1750   -2.4950   -1.0740 o         1 MOL     -0.692002
     23 C9          5.1280   -5.0210    0.5540 c3        1 MOL     -0.300441
     24 H8          3.5260   -3.2820    2.5330 hn        1 MOL      0.260421
     25 H9          3.1930   -4.2760    0.4040 h1        1 MOL      0.055474
     26 H10         4.8100   -5.8050    1.2380 hc        1 MOL      0.066673
     27 H11         5.1820   -5.3050   -0.4920 hc        1 MOL      0.066673
     28 H12         6.1450   -4.7310    0.8250 hc        1 MOL      0.066673
     29 N3          5.3670   -2.5520   -1.1290 n         1 MOL     -0.101996
     30 C10         5.5740   -1.6040   -2.2140 c3        1 MOL     -0.001823
     31 C11         6.0660   -0.1610   -1.8520 c         1 MOL      0.623230
     32 O6          6.5120    0.5750   -2.7400 o         1 MOL     -0.562407
     33 C12         6.4620   -2.2450   -3.3610 c3        1 MOL     -0.448560
     34 C13         6.1440   -3.7040   -3.7370 c         1 MOL      0.828212
     35 O7          6.5900   -4.6310   -2.9650 o         1 MOL     -0.729931
     36 O8          5.4290   -4.0070   -4.6830 o         1 MOL     -0.729931
     37 H13         6.2180   -2.9200   -0.7490 hn        1 MOL      0.185532
     38 H14         4.5850   -1.4360   -2.6280 h1        1 MOL      0.025669
     39 H15         7.5100   -2.1950   -3.0580 hc        1 MOL      0.079413
     40 H16         6.3980   -1.5750   -4.2150 hc        1 MOL      0.079413
     41 N4          6.0080    0.2010   -0.5610 n         1 MOL     -0.410882
     42 C14         6.4300    1.6200   -0.1480 c3        1 MOL     -0.093024
     43 C15         5.5910    2.6830   -0.7840 c         1 MOL      0.585842
     44 O9          6.0790    3.8500   -0.9040 o         1 MOL     -0.585784
     45 H17         5.5710   -0.4160    0.1100 hn        1 MOL      0.273489
     46 H18         7.4590    1.7830   -0.4700 h1        1 MOL      0.104165
     47 H19         6.4080    1.7220    0.9360 h1        1 MOL      0.104165
     48 N5          4.3040    2.3860   -1.1320 n         1 MOL     -0.389754
     49 C16         3.4830    3.2650   -1.9320 c3        1 MOL     -0.087786
     50 C17         3.1280    4.4650   -1.0370 c         1 MOL      0.762851
     51 O10         2.7740    4.3620    0.1060 o         1 MOL     -0.591254
     52 C18         2.2090    2.5920   -2.4330 c3        1 MOL     -0.429152
     53 C19         2.3550    1.4290   -3.3460 c         1 MOL      0.765063
     54 N6          2.5840    1.7270   -4.6170 n         1 MOL     -0.748814
     55 O11         2.2730    0.2440   -3.0100 o         1 MOL     -0.594536
     56 H20         3.9500    1.4630   -0.9470 hn        1 MOL      0.289111
     57 H21         4.1060    3.6430   -2.7490 h1        1 MOL      0.072253
     58 H22         1.5770    3.3640   -2.8600 hc        1 MOL      0.166873
     59 H23         1.7900    2.1830   -1.5060 hc        1 MOL      0.166873
     60 H24         2.6340    2.6850   -4.9210 hn        1 MOL      0.337124
     61 H25         2.6110    1.0000   -5.3100 hn        1 MOL      0.337124
     62 N7          3.2240    5.5810   -1.6980 n         1 MOL     -0.441803
     63 C20         2.7770    6.9340   -1.2950 c3        1 MOL     -0.124867
     64 C21         1.2160    7.0790   -1.4020 c         1 MOL      0.442031
     65 O12         0.6010    6.6330   -2.3600 o         1 MOL     -0.450916
     66 H26         3.6030    5.6020   -2.6320 hn        1 MOL      0.277945
     67 H27         3.2440    7.7250   -1.8840 h1        1 MOL      0.103557
     68 H28         3.1160    7.2550   -0.3120 h1        1 MOL      0.103557
     69 N8          0.5950    7.6540   -0.3300 n         1 MOL     -0.393715
     70 C22        -0.8250    7.7680   -0.4540 c3        1 MOL     -0.202718
     71 C23        -1.5480    6.5220    0.0780 c         1 MOL      0.519841
     72 O13        -2.6340    6.2730   -0.4710 o         1 MOL     -0.553209
     73 C24        -1.3900    9.0340    0.2550 c3        1 MOL      0.397902
     74 C25        -1.3010    9.1180    1.7210 c3        1 MOL     -0.414902
     75 O14        -0.5930   10.1880   -0.0700 oh        1 MOL     -0.604156
     76 H29         1.1510    8.0860    0.4020 hn        1 MOL      0.279530
     77 H30        -1.1590    7.8270   -1.4920 h1        1 MOL      0.159143
     78 H31        -2.3320    9.2570   -0.2580 h1        1 MOL      0.055898
     79 H32         0.3190    9.9580    0.1510 ho        1 MOL      0.340786
     80 H33        -1.6780   10.1250    1.9190 hc        1 MOL      0.103301
     81 H34        -1.8730    8.3450    2.2200 hc        1 MOL      0.103301
     82 H35        -0.2670    9.0850    2.0670 hc        1 MOL      0.103301
     83 N9         -1.0380    5.7410    1.0560 n         1 MOL     -0.159953
     84 C26        -1.5790    4.4090    1.4980 c3        1 MOL     -0.367211
     85 C27        -1.5990    3.2850    0.4850 c         1 MOL      0.652341
     86 O15        -1.0410    3.3280   -0.5600 o         1 MOL     -0.451998
     87 C28        -1.0590    4.0160    2.9330 c3        1 MOL      0.290231
     88 C29         0.3210    3.3980    2.9020 c3        1 MOL     -0.191815
     89 C30        -1.1970    5.2680    3.8950 c3        1 MOL     -0.409017
     90 C31         0.6440    2.9930    4.3600 c3        1 MOL     -0.260337
     91 H36        -0.1520    6.0220    1.4430 hn        1 MOL      0.201730
     92 H37        -2.6690    4.4710    1.5710 h1        1 MOL      0.097930
     93 H38        -1.7240    3.2570    3.3430 hc        1 MOL     -0.000983
     94 H39         1.0760    4.0980    2.5400 hc        1 MOL      0.141831
     95 H40         0.2510    2.4720    2.3240 hc        1 MOL      0.141831
     96 H41        -2.1240    5.8080    3.6970 hc        1 MOL      0.093136
     97 H42        -1.3620    4.8920    4.9040 hc        1 MOL      0.093136
     98 H43        -0.2750    5.8490    3.8460 hc        1 MOL      0.093136
     99 H44         1.6520    2.5830    4.3880 hc        1 MOL      0.077303
    100 H45         0.6050    3.8700    5.0150 hc        1 MOL      0.077303
    101 H46         0.0260    2.1880    4.7490 hc        1 MOL      0.077303
    102 N10        -2.2340    2.1620    0.9350 n         1 MOL     -0.595768
    103 C32        -2.2990    0.8890    0.1220 c3        1 MOL      0.126661
    104 C33        -3.6750    0.1400    0.2200 c         1 MOL      0.592633
    105 O16        -3.6380   -1.1030    0.1710 o         1 MOL     -0.463141
    106 C34        -1.0780    0.0570    0.4550 c3        1 MOL     -0.022981
    107 C35        -0.6480   -0.7750   -0.6620 c         1 MOL      0.559905
    108 O17         0.3250   -1.5430   -0.5010 o         1 MOL     -0.719513
    109 O18        -1.0940   -0.7500   -1.8030 o         1 MOL     -0.719513
    110 H47        -2.7860    2.2090    1.7860 hn        1 MOL      0.281142
    111 H48        -2.1460    1.2190   -0.9060 h1        1 MOL      0.040144
    112 H49        -1.3280   -0.6090    1.2810 hc        1 MOL      0.030383
    113 H50        -0.2600    0.6770    0.8270 hc        1 MOL      0.030383
    114 N11        -4.8810    0.7930    0.2380 n         1 MOL     -0.672154
    115 C36        -6.1750    0.1810   -0.2520 c3        1 MOL      0.488418
    116 C37        -6.5400   -1.1460    0.4090 c         1 MOL      0.216866
    117 O19        -6.5740   -1.2580    1.6680 o         1 MOL     -0.524066
    118 C38        -7.3040    1.1510   -0.1330 c3        1 MOL     -0.212210
    119 C39        -8.6780    0.6070   -0.6680 ca        1 MOL      0.039047
    120 C40        -8.7940    0.5230   -2.0780 ca        1 MOL     -0.123578
    121 C41        -9.6720   -0.0070    0.1270 ca        1 MOL     -0.123578
    122 C42        -9.9460    0.0840   -2.6780 ca        1 MOL     -0.148730
    123 C43       -10.7470   -0.6530   -0.4470 ca        1 MOL     -0.148730
    124 C44       -10.8960   -0.5550   -1.8790 ca        1 MOL     -0.072538
    125 H51        -4.7850    1.7770    0.0840 hn        1 MOL      0.312584
    126 H52        -6.1480    0.0220   -1.3320 h1        1 MOL     -0.077561
    127 H53        -7.0650    2.1050   -0.5990 hc        1 MOL      0.067891
    128 H54        -7.4150    1.3480    0.9400 hc        1 MOL      0.067891
    129 H55        -7.9860    0.9100   -2.6810 ha        1 MOL      0.125793
    130 H56        -9.6540    0.0320    1.2140 ha        1 MOL      0.125793
    131 H57       -10.0560    0.2710   -3.7270 ha        1 MOL      0.119745
    132 H58       -11.5990   -0.8240    0.2090 ha        1 MOL      0.119745
    133 H59       -11.8010   -0.9200   -2.3510 ha        1 MOL      0.086291
    134 N12        -6.7840   -2.1790   -0.3440 n         1 MOL      0.085856
    135 C45        -7.0730   -3.5020    0.2250 c3        1 MOL     -0.045964
    136 C46        -6.0140   -4.0320    1.1710 c         1 MOL      0.316322
    137 O20        -6.3530   -5.0030    1.9010 o         1 MOL     -0.535605
    138 C47        -7.2290   -4.4470   -1.0050 c3        1 MOL     -0.180050
    139 C48        -6.3610   -3.8340   -2.0730 c3        1 MOL      0.050172
    140 C49        -6.3750   -2.3830   -1.7210 c3        1 MOL     -0.085639
    141 H60        -8.0390   -3.4320    0.7090 h1        1 MOL      0.084100
    142 H61        -6.9690   -5.4830   -0.7920 hc        1 MOL      0.079444
    143 H62        -8.2140   -4.5030   -1.4660 hc        1 MOL      0.079444
    144 H63        -5.3470   -4.2130   -2.1830 hc        1 MOL      0.010539
    145 H64        -6.7840   -3.9420   -3.0700 hc        1 MOL      0.010539
    146 H65        -5.3690   -1.9710   -1.7780 h1        1 MOL      0.031601
    147 H66        -7.1490   -1.9150   -2.3300 h1        1 MOL      0.031601
    148 N13        -4.7710   -3.5770    1.1880 n         1 MOL     -0.090710
    149 C50        -3.6310   -4.0510    2.0730 c3        1 MOL     -0.252078
    150 C51        -3.5300   -3.1780    3.3610 c         1 MOL      0.474329
    151 O21        -3.0150   -3.6000    4.3940 o         1 MOL     -0.535647
    152 C52        -2.3290   -3.9230    1.2770 c3        1 MOL      0.299247
    153 C53        -2.1970   -4.7980    0.0390 c3        1 MOL     -0.246709
    154 C54        -0.8320   -4.5750   -0.6520 c         1 MOL      0.799071
    155 O22         0.1190   -5.1450   -0.1450 o         1 MOL     -0.749339
    156 O23        -0.6680   -3.8850   -1.6940 o         1 MOL     -0.749339
    157 H67        -4.4670   -2.8470    0.5600 hn        1 MOL      0.290224
    158 H68        -3.8260   -5.0740    2.3860 h1        1 MOL      0.141974
    159 H69        -1.5290   -4.1230    1.9810 hc        1 MOL     -0.022698
    160 H70        -2.1900   -2.8920    0.9540 hc        1 MOL     -0.022698
    161 H71        -2.9700   -4.5050   -0.6610 hc        1 MOL      0.009135
    162 H72        -2.2870   -5.8470    0.3360 hc        1 MOL      0.009135
    163 N14        -4.1490   -1.9820    3.3110 n         1 MOL     -0.167360
    164 C55        -4.2190   -0.9820    4.4240 c3        1 MOL     -0.312151
    165 H73        -4.5690   -1.4740    5.3320 h1        1 MOL      0.117418
    166 H74        -3.2290   -0.5610    4.5970 h1        1 MOL      0.117418
    167 H75        -4.9120   -0.1850    4.1530 h1        1 MOL      0.117418
    168 H76        -4.4940   -1.6130    2.4420 hn        1 MOL      0.177654
    169 Ca1         0.9930   -2.4540   -2.8110 Ca        1 MOL      1.818591
    170 O24         0.0370   -4.2040   -4.4790 oh        1 MOL     -0.827426
    171 H77        -0.0890   -4.0150   -5.4140 ho        1 MOL      0.396535
    172 H78        -0.4720   -5.0050   -4.3230 ho        1 MOL      0.396535
    173 O25         2.0910   -4.9680   -2.1740 oh        1 MOL     -0.827426
    174 H79         1.6050   -4.9570   -1.3480 ho        1 MOL      0.396535
    175 H80         2.6120   -5.7730   -2.1290 ho        1 MOL      0.396535
    176 O26        -0.0750   -1.1670   -4.9800 oh        1 MOL     -0.827426
    177 H81         0.4420   -0.8800   -5.7330 ho        1 MOL      0.396535
    178 H82        -0.9630   -1.2650   -5.3340 ho        1 MOL      0.396535
    179 O27         3.0660   -2.5070   -4.6450 oh        1 MOL     -0.827426
    180 H83         3.8700   -3.0260   -4.5850 ho        1 MOL      0.396535
    181 H84         3.2710   -1.8160   -5.2770 ho        1 MOL      0.396535
@<TRIPOS>BOND
     1    1    2 1   
     2    1    4 1   
     3    1    5 1   
     4    1    6 1   
     5    2    3 2   
     6    2    7 1   
     7    7    8 1   
     8    7   15 1   
     9    8    9 1   
    10    8   11 1   
    11    8   16 1   
    12    9   10 2   
    13    9   19 1   
    14   11   12 1   
    15   11   17 1   
    16   11   18 1   
    17   12   13 1   
    18   12   14 1   
    19   19   20 1   
    20   19   24 1   
    21   20   21 1   
    22   20   23 1   
    23   20   25 1   
    24   21   22 2   
    25   21   29 1   
    26   23   26 1   
    27   23   27 1   
    28   23   28 1   
    29   29   30 1   
    30   29   37 1   
    31   30   31 1   
    32   30   33 1   
    33   30   38 1   
    34   31   32 2   
    35   31   41 1   
    36   33   34 1   
    37   33   39 1   
    38   33   40 1   
    39   34   35 1   
    40   34   36 1   
    41   41   42 1   
    42   41   45 1   
    43   42   43 1   
    44   42   46 1   
    45   42   47 1   
    46   43   44 2   
    47   43   48 1   
    48   48   49 1   
    49   48   56 1   
    50   49   50 1   
    51   49   52 1   
    52   49   57 1   
    53   50   51 2   
    54   50   62 1   
    55   52   53 1   
    56   52   58 1   
    57   52   59 1   
    58   53   54 1   
    59   53   55 2   
    60   54   60 1   
    61   54   61 1   
    62   62   63 1   
    63   62   66 1   
    64   63   64 1   
    65   63   67 1   
    66   63   68 1   
    67   64   65 2   
    68   64   69 1   
    69   69   70 1   
    70   69   76 1   
    71   70   71 1   
    72   70   73 1   
    73   70   77 1   
    74   71   72 2   
    75   71   83 1   
    76   73   74 1   
    77   73   75 1   
    78   73   78 1   
    79   74   80 1   
    80   74   81 1   
    81   74   82 1   
    82   75   79 1   
    83   83   84 1   
    84   83   91 1   
    85   84   85 1   
    86   84   87 1   
    87   84   92 1   
    88   85   86 2   
    89   85  102 1   
    90   87   88 1   
    91   87   89 1   
    92   87   93 1   
    93   88   90 1   
    94   88   94 1   
    95   88   95 1   
    96   89   96 1   
    97   89   97 1   
    98   89   98 1   
    99   90   99 1   
   100   90  100 1   
   101   90  101 1   
   102  102  103 1   
   103  102  110 1   
   104  103  104 1   
   105  103  106 1   
   106  103  111 1   
   107  104  105 2   
   108  104  114 1   
   109  106  107 1   
   110  106  112 1   
   111  106  113 1   
   112  107  108 1   
   113  107  109 1   
   114  114  115 1   
   115  114  125 1   
   116  115  116 1   
   117  115  118 1   
   118  115  126 1   
   119  116  117 2   
   120  116  134 1   
   121  118  119 1   
   122  118  127 1   
   123  118  128 1   
   124  119  120 ar  
   125  119  121 ar  
   126  120  122 ar  
   127  120  129 1   
   128  121  123 ar  
   129  121  130 1   
   130  122  124 ar  
   131  122  131 1   
   132  123  124 ar  
   133  123  132 1   
   134  124  133 1   
   135  134  135 1   
   136  134  140 1   
   137  135  136 1   
   138  135  138 1   
   139  135  141 1   
   140  136  137 2   
   141  136  148 1   
   142  138  139 1   
   143  138  142 1   
   144  138  143 1   
   145  139  140 1   
   146  139  144 1   
   147  139  145 1   
   148  140  146 1   
   149  140  147 1   
   150  148  149 1   
   151  148  157 1   
   152  149  150 1   
   153  149  152 1   
   154  149  158 1   
   155  150  151 2   
   156  150  163 1   
   157  152  153 1   
   158  152  159 1   
   159  152  160 1   
   160  153  154 1   
   161  153  161 1   
   162  153  162 1   
   163  154  155 1   
   164  154  156 1   
   165  163  164 1   
   166  163  168 1   
   167  164  165 1   
   168  164  166 1   
   169  164  167 1   
   170  170  171 1   
   171  170  172 1   
   172  173  174 1   
   173  173  175 1   
   174  176  177 1   
   175  176  178 1   
   176  179  180 1   
   177  179  181 1   
@<TRIPOS>SUBSTRUCTURE
     1 MOL         1 TEMP              0 ****  ****    0 ROOT
