@<TRIPOS>MOLECULE
MOL
  195   189     1     0     0
SMALL
resp


@<TRIPOS>ATOM
      1 C1          0.9670    5.5280    1.6720 c3        1 MOL     -0.265467
      2 C2         -0.1120    5.0200    0.6960 c         1 MOL      0.413515
      3 O1         -0.9080    4.1440    1.0520 o         1 MOL     -0.502629
      4 H1          0.8500    6.6020    1.8160 hc        1 MOL      0.060817
      5 H2          0.8580    5.0200    2.6300 hc        1 MOL      0.060817
      6 H3          1.9560    5.3230    1.2620 hc        1 MOL      0.060817
      7 N1         -0.1880    5.5050   -0.5570 n         1 MOL     -0.279602
      8 C3         -0.9910    5.0030   -1.6870 c3        1 MOL     -0.037397
      9 C4         -2.3710    4.9030   -1.3030 c         1 MOL      0.690610
     10 O2         -3.0750    3.9700   -1.6090 o         1 MOL     -0.551119
     11 C5         -0.5060    3.7240   -2.3080 c3        1 MOL     -0.195649
     12 C6          1.0130    3.7780   -2.5430 c         1 MOL      0.719542
     13 O3          1.8410    3.3960   -1.6590 o         1 MOL     -0.677923
     14 O4          1.4170    4.2180   -3.6370 o         1 MOL     -0.677923
     15 H4          0.5790    6.0780   -0.8700 hn        1 MOL      0.207747
     16 H5         -0.9000    5.7520   -2.4790 h1        1 MOL      0.064088
     17 H6         -1.0240    3.5050   -3.2450 hc        1 MOL      0.080555
     18 H7         -0.7800    2.8820   -1.6690 hc        1 MOL      0.080555
     19 N2         -2.9340    5.8650   -0.5960 n         1 MOL     -0.511129
     20 C7         -4.1800    5.8570    0.0810 c3        1 MOL     -0.087086
     21 C8         -5.2820    6.0930   -0.9520 c         1 MOL      0.631498
     22 O5         -5.3620    7.1550   -1.5940 o         1 MOL     -0.636788
     23 C9         -4.0930    7.0600    1.0720 c3        1 MOL      0.229342
     24 C10        -3.1570    6.6760    2.2160 c3        1 MOL     -0.047339
     25 C11        -5.4650    7.3340    1.6960 c3        1 MOL     -0.347344
     26 C12        -3.0260    7.7740    3.3460 c3        1 MOL     -0.239814
     27 H8         -2.3740    6.6890   -0.4280 hn        1 MOL      0.206406
     28 H9         -4.4590    4.9560    0.6230 h1        1 MOL      0.167586
     29 H10        -3.7550    7.9640    0.5710 hc        1 MOL      0.004146
     30 H11        -2.1910    6.5510    1.7370 hc        1 MOL      0.065456
     31 H12        -3.4690    5.8000    2.7890 hc        1 MOL      0.065456
     32 H13        -5.6960    6.6540    2.5160 hc        1 MOL      0.084538
     33 H14        -5.6000    8.3620    2.0280 hc        1 MOL      0.084538
     34 H15        -6.3010    7.2830    1.0090 hc        1 MOL      0.084538
     35 H16        -3.9780    7.9210    3.8440 hc        1 MOL      0.044115
     36 H17        -2.2820    7.4200    4.0680 hc        1 MOL      0.044115
     37 H18        -2.7860    8.7450    2.9260 hc        1 MOL      0.044115
     38 N3         -6.1920    5.1610   -1.1110 n         1 MOL     -0.488201
     39 C13        -6.2630    3.8410   -0.4440 c3        1 MOL     -0.096609
     40 C14        -6.8690    2.9300   -1.5790 c         1 MOL      0.658642
     41 O6         -8.0690    3.0090   -1.8190 o         1 MOL     -0.492382
     42 C15        -7.1280    3.9840    0.8230 c3        1 MOL     -0.284522
     43 C16        -7.7730    2.6530    1.1920 c         1 MOL      0.721558
     44 O7         -7.1640    1.5420    1.0980 o         1 MOL     -0.705709
     45 O8         -8.9720    2.7810    1.5500 o         1 MOL     -0.705709
     46 H19        -6.9480    5.3730   -1.7490 hn        1 MOL      0.299341
     47 H20        -5.3160    3.3650   -0.1830 h1        1 MOL      0.078831
     48 H21        -7.8380    4.8000    0.6880 hc        1 MOL      0.074369
     49 H22        -6.4320    4.3730    1.5670 hc        1 MOL      0.074369
     50 N4         -5.9810    2.1170   -2.2470 n         1 MOL     -0.511740
     51 C17        -6.3730    1.2830   -3.4080 c3        1 MOL     -0.015011
     52 C18        -6.8480   -0.1490   -3.0550 c         1 MOL      0.563365
     53 O9         -8.0420   -0.3460   -2.9860 o         1 MOL     -0.534558
     54 H23        -5.0180    2.1650   -1.9660 hn        1 MOL      0.319883
     55 H24        -5.4460    1.1640   -3.9690 h1        1 MOL      0.044899
     56 H25        -7.0890    1.7740   -4.0700 h1        1 MOL      0.044899
     57 N5         -5.8790   -1.0300   -2.9790 n         1 MOL     -0.487639
     58 C19        -6.1950   -2.4430   -2.8960 c3        1 MOL      0.015548
     59 C20        -6.7270   -2.8790   -1.5110 c         1 MOL      0.389673
     60 O10        -7.1410   -4.0210   -1.4070 o         1 MOL     -0.559314
     61 C21        -4.9670   -3.3010   -3.3390 c3        1 MOL     -0.133745
     62 C22        -3.6430   -2.7940   -2.7860 c         1 MOL      0.690061
     63 O11        -3.0050   -2.1150   -3.6040 o         1 MOL     -0.692301
     64 O12        -3.2840   -2.9040   -1.5340 o         1 MOL     -0.692301
     65 H26        -4.9740   -0.7320   -3.3020 hn        1 MOL      0.323827
     66 H27        -7.0450   -2.6250   -3.5480 h1        1 MOL      0.090268
     67 H28        -5.0300   -3.2530   -4.4300 hc        1 MOL      0.014660
     68 H29        -5.0940   -4.3320   -3.0190 hc        1 MOL      0.014660
     69 N6         -6.5090   -2.1110   -0.4330 n         1 MOL      0.021465
     70 C23        -6.9980   -2.4900    0.9000 c3        1 MOL     -0.416875
     71 C24        -6.1840   -3.7220    1.4450 c         1 MOL      0.613000
     72 O13        -6.6130   -4.3350    2.4080 o         1 MOL     -0.596482
     73 H30        -6.0060   -1.2550   -0.5750 hn        1 MOL      0.183745
     74 H31        -8.0590   -2.7260    0.8810 h1        1 MOL      0.169209
     75 H32        -6.7950   -1.6600    1.5680 h1        1 MOL      0.169209
     76 N7         -5.0510   -4.0470    0.8550 n         1 MOL     -0.139538
     77 C25        -4.1880   -5.1180    1.2870 c3        1 MOL      0.270578
     78 C26        -3.3710   -4.9440    2.6250 c         1 MOL      0.457360
     79 O14        -3.0700   -5.9050    3.3250 o         1 MOL     -0.532144
     80 C27        -4.7510   -6.4950    1.0800 c3        1 MOL     -0.118198
     81 C28        -5.2890   -6.7950   -0.3610 c3        1 MOL     -0.117255
     82 C29        -5.0110   -8.2620   -0.7360 c         1 MOL      0.651897
     83 N8         -5.5490   -8.7140   -1.8630 n         1 MOL     -0.842792
     84 O15        -4.1550   -9.0090   -0.2310 o         1 MOL     -0.539347
     85 H33        -4.8450   -3.5130    0.0100 hn        1 MOL      0.014544
     86 H34        -3.3350   -5.1400    0.6050 h1        1 MOL      0.051738
     87 H35        -5.5270   -6.6310    1.8370 hc        1 MOL      0.011248
     88 H36        -3.8930   -7.1660    1.1730 hc        1 MOL      0.011248
     89 H37        -4.7800   -6.1620   -1.0980 hc        1 MOL      0.056152
     90 H38        -6.3610   -6.6310   -0.4240 hc        1 MOL      0.056152
     91 H39        -6.1270   -8.0290   -2.3230 hn        1 MOL      0.359935
     92 H40        -5.1830   -9.4990   -2.3800 hn        1 MOL      0.359935
     93 N9         -2.9940   -3.7610    3.0420 n         1 MOL     -0.486599
     94 C30        -2.3660   -3.3810    4.2960 c3        1 MOL      0.039639
     95 C31        -1.1180   -2.5830    4.0550 c         1 MOL      0.574035
     96 O16        -0.3840   -2.2970    4.9430 o         1 MOL     -0.553451
     97 C32        -3.3490   -2.6170    5.1920 c3        1 MOL      0.228250
     98 C33        -3.6540   -1.2210    4.6970 c3        1 MOL     -0.310934
     99 C34        -4.6390   -3.3730    5.2490 c3        1 MOL     -0.310934
    100 H41        -3.2670   -3.0240    2.4090 hn        1 MOL      0.202462
    101 H42        -2.0600   -4.2920    4.8110 h1        1 MOL      0.091565
    102 H43        -2.7820   -2.6670    6.1200 hc        1 MOL     -0.034060
    103 H44        -2.7350   -0.6350    4.6080 hc        1 MOL      0.078421
    104 H45        -4.1370   -1.2490    3.7220 hc        1 MOL      0.078421
    105 H46        -4.3140   -0.7790    5.4350 hc        1 MOL      0.078421
    106 H47        -4.4350   -4.4310    5.4080 hc        1 MOL      0.078421
    107 H48        -5.2930   -3.1250    6.0920 hc        1 MOL      0.078421
    108 H49        -5.2770   -3.2770    4.3660 hc        1 MOL      0.078421
    109 N10        -0.9710   -2.0850    2.7670 n         1 MOL     -0.414745
    110 C35         0.1320   -1.3030    2.2950 c3        1 MOL      0.057438
    111 C36         1.0160   -2.0250    1.2160 c         1 MOL      0.575984
    112 O17         0.5610   -2.9530    0.5600 o         1 MOL     -0.513581
    113 C37        -0.4540    0.0410    1.8530 c3        1 MOL     -0.051327
    114 C38         0.5940    0.9760    1.3280 c         1 MOL      0.368992
    115 N11         0.6860    1.0360    0.0080 n         1 MOL     -0.424156
    116 O18         1.3020    1.6950    2.0030 o         1 MOL     -0.482750
    117 H50        -1.6540   -2.4010    2.0940 hn        1 MOL      0.254721
    118 H51         0.7040   -1.0090    3.1700 h1        1 MOL      0.061113
    119 H52        -0.9850    0.5690    2.6510 hc        1 MOL      0.070037
    120 H53        -1.1880   -0.0870    1.0610 hc        1 MOL      0.070037
    121 H54         0.1080    0.3630   -0.4750 hn        1 MOL      0.248107
    122 H55         1.1340    1.8070   -0.4680 hn        1 MOL      0.248107
    123 N12         2.3010   -1.6380    1.1070 n         1 MOL     -0.504582
    124 C39         3.1150   -2.1360    0.0230 c3        1 MOL      0.158229
    125 C40         4.6040   -2.0170    0.2910 c         1 MOL      0.536735
    126 O19         4.8700   -1.3320    1.2870 o         1 MOL     -0.509818
    127 C41         2.7080   -1.4180   -1.3010 c3        1 MOL     -0.383367
    128 C42         2.8820   -2.2220   -2.5650 ca        1 MOL      0.169133
    129 C43         1.7970   -3.0010   -3.0460 ca        1 MOL     -0.201133
    130 C44         4.1070   -2.2740   -3.2390 ca        1 MOL     -0.201133
    131 C45         1.9140   -3.9140   -4.0800 ca        1 MOL     -0.193879
    132 C46         4.1560   -3.1750   -4.3560 ca        1 MOL     -0.193879
    133 C47         3.1560   -4.0340   -4.7130 ca        1 MOL      0.277809
    134 O20         3.2690   -4.8590   -5.8130 oh        1 MOL     -0.551833
    135 H56         2.8010   -1.1490    1.8410 hn        1 MOL      0.272984
    136 H57         2.9620   -3.2160   -0.0780 h1        1 MOL      0.084975
    137 H58         3.3430   -0.5370   -1.4410 hc        1 MOL      0.113023
    138 H59         1.6790   -1.0650   -1.3090 hc        1 MOL      0.113023
    139 H60         0.8610   -2.8540   -2.5320 ha        1 MOL      0.165448
    140 H61         4.9420   -1.6820   -2.8960 ha        1 MOL      0.165448
    141 H62         1.0780   -4.5220   -4.4040 ha        1 MOL      0.134314
    142 H63         5.1170   -3.4030   -4.7870 ha        1 MOL      0.134314
    143 H64         2.5420   -5.4820   -5.8850 ho        1 MOL      0.395017
    144 N13         5.5300   -2.6330   -0.4570 n         1 MOL     -0.516360
    145 C48         6.9800   -2.4810   -0.3950 c3        1 MOL      0.463239
    146 C49         7.6670   -2.2930   -1.7410 c         1 MOL      0.311926
    147 O21         7.4930   -3.1800   -2.6170 o         1 MOL     -0.537487
    148 C50         7.7640   -3.6160    0.3420 c3        1 MOL     -0.050045
    149 C51         7.1760   -4.1290    1.6880 c3        1 MOL     -0.222392
    150 C52         8.0430   -5.3010    2.1900 c         1 MOL      0.727460
    151 O22         7.7490   -6.5020    2.0580 o         1 MOL     -0.693363
    152 O23         9.0540   -5.0880    2.8980 o         1 MOL     -0.693363
    153 H65         5.1830   -3.3480   -1.0770 hn        1 MOL      0.278956
    154 H66         7.1810   -1.5860    0.2050 h1        1 MOL     -0.259115
    155 H67         8.7590   -3.2890    0.6210 hc        1 MOL      0.037466
    156 H68         7.8150   -4.5070   -0.2770 hc        1 MOL      0.037466
    157 H69         6.1480   -4.4310    1.4970 hc        1 MOL      0.035108
    158 H70         7.1310   -3.3120    2.4120 hc        1 MOL      0.035108
    159 N14         8.2040   -1.1520   -2.0280 n         1 MOL     -0.436775
    160 C53         8.2830    0.1220   -1.2850 c3        1 MOL      0.049086
    161 C54         9.1450    0.0610    0.0130 c         1 MOL      0.709362
    162 O24        10.3660   -0.0750   -0.0930 o         1 MOL     -0.599114
    163 C55         8.7340    1.1750   -2.2470 c3        1 MOL     -0.463947
    164 C56         8.9920    2.5370   -1.5960 c3        1 MOL      0.303965
    165 C57         7.7840    3.1020   -0.8530 c         1 MOL      0.382183
    166 O25         7.9300    3.3070    0.3790 o         1 MOL     -0.703098
    167 O26         6.7340    3.4420   -1.4620 o         1 MOL     -0.703098
    168 H71         8.7840   -1.1300   -2.8560 hn        1 MOL      0.316605
    169 H72         7.2410    0.2340   -0.9730 h1        1 MOL      0.112344
    170 H73         8.0660    1.2490   -3.1080 hc        1 MOL      0.135638
    171 H74         9.7660    0.8690   -2.4110 hc        1 MOL      0.135638
    172 H75         9.2200    3.2800   -2.3700 hc        1 MOL     -0.035816
    173 H76         9.9460    2.5130   -1.0680 hc        1 MOL     -0.035816
    174 N15         8.5270    0.2680    1.1620 n         1 MOL     -0.386066
    175 C58         9.2140    0.3130    2.4680 c3        1 MOL     -0.266965
    176 H77         9.3250    1.3510    2.7840 h1        1 MOL      0.111849
    177 H78         8.6260   -0.2310    3.2080 h1        1 MOL      0.111849
    178 H79        10.1990   -0.1450    2.3770 h1        1 MOL      0.111849
    179 H80         7.5800    0.6060    1.0950 hn        1 MOL      0.485652
    180 Ca1         5.4610    4.3530    0.7100 Ca        1 MOL      1.757726
    181 O27         4.0190    5.0500   -1.5880 oh        1 MOL     -0.934568
    182 H81         3.2130    4.5830   -1.8220 ho        1 MOL      0.435428
    183 H82         4.1140    5.7230   -2.2620 ho        1 MOL      0.435428
    184 O28         3.0590    3.3600    0.5710 oh        1 MOL     -0.934568
    185 H83         2.5490    3.3260   -0.2420 ho        1 MOL      0.435428
    186 H84         2.6400    2.7290    1.1520 ho        1 MOL      0.435428
    187 O29         7.1490    5.1740    2.5320 oh        1 MOL     -0.934568
    188 H85         8.0650    5.0270    2.7430 ho        1 MOL      0.435428
    189 H86         6.7510    5.4600    3.3470 ho        1 MOL      0.435428
    190 O30         4.3610    3.5870    3.2060 oh        1 MOL     -0.934568
    191 H87         4.7030    2.8290    3.6830 ho        1 MOL      0.435428
    192 H88         3.5820    3.8530    3.7100 ho        1 MOL      0.435428
    193 O31         5.6120    1.3150    0.7700 oh        1 MOL     -0.934568
    194 H89         5.4800    1.3160   -0.1840 ho        1 MOL      0.435428
    195 H90         5.1360    0.5390    1.0770 ho        1 MOL      0.435428
@<TRIPOS>BOND
     1    1    2 1   
     2    1    4 1   
     3    1    5 1   
     4    1    6 1   
     5    2    3 2   
     6    2    7 1   
     7    7    8 1   
     8    7   15 1   
     9    8    9 1   
    10    8   11 1   
    11    8   16 1   
    12    9   10 2   
    13    9   19 1   
    14   11   12 1   
    15   11   17 1   
    16   11   18 1   
    17   12   13 1   
    18   12   14 1   
    19   19   20 1   
    20   19   27 1   
    21   20   21 1   
    22   20   23 1   
    23   20   28 1   
    24   21   22 2   
    25   21   38 1   
    26   23   24 1   
    27   23   25 1   
    28   23   29 1   
    29   24   26 1   
    30   24   30 1   
    31   24   31 1   
    32   25   32 1   
    33   25   33 1   
    34   25   34 1   
    35   26   35 1   
    36   26   36 1   
    37   26   37 1   
    38   38   39 1   
    39   38   46 1   
    40   39   40 1   
    41   39   42 1   
    42   39   47 1   
    43   40   41 2   
    44   40   50 1   
    45   42   43 1   
    46   42   48 1   
    47   42   49 1   
    48   43   44 1   
    49   43   45 1   
    50   50   51 1   
    51   50   54 1   
    52   51   52 1   
    53   51   55 1   
    54   51   56 1   
    55   52   53 2   
    56   52   57 1   
    57   57   58 1   
    58   57   65 1   
    59   58   59 1   
    60   58   61 1   
    61   58   66 1   
    62   59   60 2   
    63   59   69 1   
    64   61   62 1   
    65   61   67 1   
    66   61   68 1   
    67   62   63 1   
    68   62   64 1   
    69   69   70 1   
    70   69   73 1   
    71   70   71 1   
    72   70   74 1   
    73   70   75 1   
    74   71   72 2   
    75   71   76 1   
    76   76   77 1   
    77   76   85 1   
    78   77   78 1   
    79   77   80 1   
    80   77   86 1   
    81   78   79 2   
    82   78   93 1   
    83   80   81 1   
    84   80   87 1   
    85   80   88 1   
    86   81   82 1   
    87   81   89 1   
    88   81   90 1   
    89   82   83 1   
    90   82   84 2   
    91   83   91 1   
    92   83   92 1   
    93   93   94 1   
    94   93  100 1   
    95   94   95 1   
    96   94   97 1   
    97   94  101 1   
    98   95   96 2   
    99   95  109 1   
   100   97   98 1   
   101   97   99 1   
   102   97  102 1   
   103   98  103 1   
   104   98  104 1   
   105   98  105 1   
   106   99  106 1   
   107   99  107 1   
   108   99  108 1   
   109  109  110 1   
   110  109  117 1   
   111  110  111 1   
   112  110  113 1   
   113  110  118 1   
   114  111  112 2   
   115  111  123 1   
   116  113  114 1   
   117  113  119 1   
   118  113  120 1   
   119  114  115 1   
   120  114  116 2   
   121  115  121 1   
   122  115  122 1   
   123  123  124 1   
   124  123  135 1   
   125  124  125 1   
   126  124  127 1   
   127  124  136 1   
   128  125  126 2   
   129  125  144 1   
   130  127  128 1   
   131  127  137 1   
   132  127  138 1   
   133  128  129 ar  
   134  128  130 ar  
   135  129  131 ar  
   136  129  139 1   
   137  130  132 ar  
   138  130  140 1   
   139  131  133 ar  
   140  131  141 1   
   141  132  133 ar  
   142  132  142 1   
   143  133  134 1   
   144  134  143 1   
   145  144  145 1   
   146  144  153 1   
   147  145  146 1   
   148  145  148 1   
   149  145  154 1   
   150  146  147 2   
   151  146  159 1   
   152  148  149 1   
   153  148  155 1   
   154  148  156 1   
   155  149  150 1   
   156  149  157 1   
   157  149  158 1   
   158  150  151 1   
   159  150  152 1   
   160  159  160 1   
   161  159  168 1   
   162  160  161 1   
   163  160  163 1   
   164  160  169 1   
   165  161  162 2   
   166  161  174 1   
   167  163  164 1   
   168  163  170 1   
   169  163  171 1   
   170  164  165 1   
   171  164  172 1   
   172  164  173 1   
   173  165  166 1   
   174  165  167 1   
   175  174  175 1   
   176  174  179 1   
   177  175  176 1   
   178  175  177 1   
   179  175  178 1   
   180  181  182 1   
   181  181  183 1   
   182  184  185 1   
   183  184  186 1   
   184  187  188 1   
   185  187  189 1   
   186  190  191 1   
   187  190  192 1   
   188  193  194 1   
   189  193  195 1   
@<TRIPOS>SUBSTRUCTURE
     1 MOL         1 TEMP              0 ****  ****    0 ROOT
