@<TRIPOS>MOLECULE
MOL
  188   182     1     0     0
SMALL
resp


@<TRIPOS>ATOM
      1 C1         -7.8610    7.0030    0.2430 c3        1 MOL     -0.413407
      2 C2         -8.4610    5.7750   -0.4950 c         1 MOL      0.675021
      3 O1         -8.8880    5.8600   -1.6650 o         1 MOL     -0.564412
      4 H1         -7.6890    6.7490    1.2890 hc        1 MOL      0.107957
      5 H2         -6.9170    7.2830   -0.2220 hc        1 MOL      0.107957
      6 H3         -8.5570    7.8400    0.1830 hc        1 MOL      0.107957
      7 N1         -8.5340    4.5680    0.1120 n         1 MOL     -0.649657
      8 C3         -9.2920    3.4190   -0.4810 c3        1 MOL      0.361126
      9 C4         -8.6910    2.1210   -0.0230 c         1 MOL      0.530018
     10 O2         -7.8050    2.1190    0.8560 o         1 MOL     -0.599776
     11 C5        -10.7850    3.4690    0.0320 c3        1 MOL     -0.328148
     12 C6        -11.7680    2.4590   -0.6360 c         1 MOL      0.796780
     13 O3        -11.6980    2.1340   -1.8370 o         1 MOL     -0.708160
     14 O4        -12.5850    1.8530    0.0490 o         1 MOL     -0.708160
     15 H4         -8.2210    4.5470    1.0840 hn        1 MOL      0.327482
     16 H5         -9.2670    3.4770   -1.5640 h1        1 MOL      0.011794
     17 H6        -11.2120    4.4580   -0.1090 hc        1 MOL      0.057901
     18 H7        -10.7640    3.2450    1.1010 hc        1 MOL      0.057901
     19 N2         -9.1480    0.9900   -0.4870 n         1 MOL     -0.366398
     20 C7         -8.5530   -0.3060   -0.2210 c3        1 MOL      0.012055
     21 C8         -7.2250   -0.3120   -1.0190 c         1 MOL      0.601444
     22 O5         -7.2260   -0.0320   -2.2240 o         1 MOL     -0.574791
     23 C9         -9.5370   -1.4830   -0.5450 c3        1 MOL     -0.352920
     24 C10       -10.7450   -1.4450    0.4410 c3        1 MOL      0.261190
     25 C11       -11.6100   -2.6490    0.1840 c3        1 MOL     -0.031508
     26 C12       -10.9130   -3.9940    0.5010 c3        1 MOL      0.083605
     27 N3        -11.7560   -5.2230    0.7030 n4        1 MOL     -0.312665
     28 H8         -9.9190    1.0340   -1.1330 hn        1 MOL      0.227914
     29 H9         -8.2710   -0.3730    0.8310 h1        1 MOL      0.076208
     30 H10        -9.1130   -2.4750   -0.4270 hc        1 MOL      0.136924
     31 H11        -9.9730   -1.3800   -1.5350 hc        1 MOL      0.136924
     32 H12       -11.2770   -0.5050    0.3380 hc        1 MOL     -0.037949
     33 H13       -10.4290   -1.4610    1.4850 hc        1 MOL     -0.037949
     34 H14       -11.9900   -2.6770   -0.8360 hc        1 MOL      0.033405
     35 H15       -12.5230   -2.5810    0.7810 hc        1 MOL      0.033405
     36 H16       -10.4100   -3.8900    1.4580 hx        1 MOL      0.028691
     37 H17       -10.2080   -4.1470   -0.3120 hx        1 MOL      0.028691
     38 H18       -12.4000   -5.3040   -0.0580 hn        1 MOL      0.283924
     39 H19       -11.1800   -6.0410    0.7930 hn        1 MOL      0.283924
     40 H20       -12.3120   -5.1770    1.5600 hn        1 MOL      0.283924
     41 N4         -6.0420   -0.5510   -0.4050 n         1 MOL     -0.428095
     42 C13        -4.7320   -0.5410   -0.9810 c3        1 MOL     -0.085104
     43 C14        -4.3760   -1.8950   -1.6330 c         1 MOL      0.556291
     44 O6         -4.6190   -2.9580   -1.0780 o         1 MOL     -0.479835
     45 C15        -3.7920   -0.2390    0.1920 c3        1 MOL     -0.032230
     46 C16        -2.3860    0.1390   -0.2890 c         1 MOL      0.212863
     47 O7         -1.6100   -0.7930   -0.6350 o         1 MOL     -0.508196
     48 O8         -2.0610    1.3390   -0.5070 o         1 MOL     -0.508196
     49 H21        -6.1490   -0.8440    0.5560 hn        1 MOL      0.235961
     50 H22        -4.6740    0.3220   -1.6450 h1        1 MOL      0.165016
     51 H23        -3.7120   -1.1540    0.7840 hc        1 MOL      0.072540
     52 H24        -4.1100    0.5380    0.8720 hc        1 MOL      0.072540
     53 N5         -3.7620   -1.7620   -2.8160 n         1 MOL     -0.275819
     54 C17        -3.4490   -2.9930   -3.5880 c3        1 MOL     -0.310106
     55 C18        -2.3990   -3.9340   -2.9750 c         1 MOL      0.520532
     56 O9         -2.3980   -5.1590   -3.2530 o         1 MOL     -0.558645
     57 H25        -3.5000   -0.8500   -3.1470 hn        1 MOL      0.218127
     58 H26        -3.1180   -2.5310   -4.5160 h1        1 MOL      0.163831
     59 H27        -4.3840   -3.5410   -3.6580 h1        1 MOL      0.163831
     60 N6         -1.6110   -3.4740   -2.0250 n         1 MOL      0.043114
     61 C19        -0.6780   -4.2260   -1.2310 c3        1 MOL     -0.049804
     62 C20        -0.8080   -4.0150    0.3270 c         1 MOL      0.402965
     63 O10         0.0050   -4.3860    1.1830 o         1 MOL     -0.497417
     64 C21         0.8130   -4.1410   -1.6910 c3        1 MOL     -0.367317
     65 C22         1.4120   -2.8420   -1.4780 c         1 MOL      0.665005
     66 N7          2.7190   -2.8040   -1.7930 n         1 MOL     -0.791861
     67 O11         0.9020   -1.8250   -1.0450 o         1 MOL     -0.430785
     68 H28        -1.7680   -2.5050   -1.7700 hn        1 MOL     -0.218450
     69 H29        -0.9720   -5.2790   -1.2590 h1        1 MOL      0.124853
     70 H30         0.7870   -4.2310   -2.7780 hc        1 MOL      0.143354
     71 H31         1.4580   -4.9060   -1.2750 hc        1 MOL      0.143354
     72 H32         3.2090   -3.6810   -1.8670 hn        1 MOL      0.349797
     73 H33         3.2220   -1.9510   -1.6410 hn        1 MOL      0.349797
     74 N8         -1.9060   -3.3480    0.6850 n         1 MOL     -0.094136
     75 C23        -2.3720   -3.1630    2.0780 c3        1 MOL     -0.206781
     76 C24        -1.7650   -1.9450    2.8220 c         1 MOL      0.544665
     77 O12        -2.1640   -1.7870    3.9760 o         1 MOL     -0.523657
     78 H34        -2.5440   -3.1060   -0.0660 hn        1 MOL      0.128354
     79 H35        -2.1500   -4.0510    2.6660 h1        1 MOL      0.116547
     80 H36        -3.4590   -3.0450    2.1190 h1        1 MOL      0.116547
     81 N9         -0.9040   -1.1430    2.1320 n         1 MOL     -0.265897
     82 C25        -0.2040   -0.1130    2.8680 c3        1 MOL     -0.101287
     83 C26         1.0480    0.3150    2.0810 c         1 MOL      0.244328
     84 O13         1.0190    0.4230    0.8330 o         1 MOL     -0.450583
     85 C27        -1.1180    1.0460    3.1280 c3        1 MOL     -0.263843
     86 C28        -0.4390    2.2900    3.6690 ca        1 MOL      0.052147
     87 C29         0.0810    2.2580    4.9800 ca        1 MOL     -0.195731
     88 C30        -0.2530    3.4420    2.8830 ca        1 MOL     -0.195731
     89 C31         0.7670    3.2990    5.5320 ca        1 MOL     -0.141705
     90 C32         0.5810    4.4270    3.3770 ca        1 MOL     -0.141705
     91 C33         1.0820    4.4300    4.7430 ca        1 MOL      0.221675
     92 O14         1.6770    5.5060    5.4060 oh        1 MOL     -0.464977
     93 H37        -0.7230   -1.3280    1.1540 hn        1 MOL      0.229468
     94 H38         0.1240   -0.5570    3.8090 h1        1 MOL      0.083313
     95 H39        -1.9570    0.7410    3.7580 hc        1 MOL      0.159729
     96 H40        -1.6140    1.4060    2.2270 hc        1 MOL      0.159729
     97 H41        -0.1370    1.3900    5.5730 ha        1 MOL      0.137414
     98 H42        -0.5290    3.4160    1.8480 ha        1 MOL      0.137414
     99 H43         0.9810    3.2870    6.5980 ha        1 MOL      0.124061
    100 H44         0.8510    5.3250    2.8370 ha        1 MOL      0.124061
    101 H45         1.7920    6.2280    4.7950 ho        1 MOL      0.369655
    102 N10         2.1770    0.4690    2.7560 n         1 MOL     -0.053384
    103 C34         3.4260    0.6130    2.0700 c3        1 MOL     -0.042818
    104 C35         3.7110   -0.7360    1.4190 c         1 MOL      0.155874
    105 O15         4.1600   -0.7890    0.2630 o         1 MOL     -0.437163
    106 C36         4.5440    0.9750    3.1270 c3        1 MOL      0.005569
    107 C37         4.4520    2.3460    3.7510 c3        1 MOL      0.076990
    108 C38         6.0160    0.7820    2.5620 c3        1 MOL     -0.485293
    109 C39         4.3640    3.5110    2.7690 c3        1 MOL     -0.000738
    110 H46         2.2490    0.4010    3.7590 hn        1 MOL      0.232221
    111 H47         3.4030    1.4190    1.3280 h1        1 MOL      0.132680
    112 H48         4.4650    0.2420    3.9280 hc        1 MOL     -0.008618
    113 H49         5.2570    2.4900    4.4630 hc        1 MOL      0.001743
    114 H50         3.5350    2.1800    4.3340 hc        1 MOL      0.001743
    115 H51         6.1690   -0.2160    2.1400 hc        1 MOL      0.141544
    116 H52         6.1340    1.4380    1.6940 hc        1 MOL      0.141544
    117 H53         6.8840    1.0960    3.1310 hc        1 MOL      0.141544
    118 H54         4.7100    4.4300    3.2290 hc        1 MOL     -0.002085
    119 H55         4.9680    3.3070    1.8790 hc        1 MOL     -0.002085
    120 H56         3.2980    3.5950    2.5490 hc        1 MOL     -0.002085
    121 N11         3.4340   -1.8010    2.1870 n         1 MOL     -0.073710
    122 C40         3.6180   -3.2120    1.8000 c3        1 MOL     -0.149841
    123 C41         5.0210   -3.5360    1.1980 c         1 MOL      0.350186
    124 O16         5.1800   -3.9990    0.0650 o         1 MOL     -0.474510
    125 C42         3.0730   -4.2650    2.7920 c3        1 MOL      0.247552
    126 O17         1.7780   -4.0700    3.1070 oh        1 MOL     -0.559701
    127 H57         2.9270   -1.6130    3.0390 hn        1 MOL      0.209618
    128 H58         2.9560   -3.3050    0.9370 h1        1 MOL      0.109161
    129 H59         3.6730   -4.1000    3.6930 h1        1 MOL      0.009093
    130 H60         3.3300   -5.2800    2.5100 h1        1 MOL      0.009093
    131 H61         1.1990   -4.4540    2.4430 ho        1 MOL      0.375936
    132 N12         6.0170   -3.2030    1.9890 n         1 MOL     -0.223908
    133 C43         7.4680   -3.3440    1.8360 c3        1 MOL      0.031850
    134 C44         8.0920   -2.5810    0.6730 c         1 MOL      0.468893
    135 O18         9.3070   -2.5890    0.4660 o         1 MOL     -0.526612
    136 C45         7.7510   -4.8780    1.6820 c3        1 MOL     -0.436131
    137 H62         5.7820   -3.0250    2.9590 hn        1 MOL      0.227456
    138 H63         7.9490   -3.0540    2.7740 h1        1 MOL      0.088567
    139 H64         8.8120   -5.1330    1.6750 hc        1 MOL      0.141090
    140 H65         7.2350   -5.4600    2.4400 hc        1 MOL      0.141090
    141 H66         7.3300   -5.1750    0.7220 hc        1 MOL      0.141090
    142 N13         7.2490   -1.8090   -0.0690 n         1 MOL     -0.330593
    143 C46         7.6690   -1.0920   -1.3510 c3        1 MOL      0.100388
    144 C47         8.2710    0.3430   -1.2290 c         1 MOL      0.497689
    145 O19         7.7810    1.2020   -0.4510 o         1 MOL     -0.446822
    146 C48         6.4620   -1.1910   -2.2910 c3        1 MOL     -0.223927
    147 H67         6.2840   -1.7720    0.2320 hn        1 MOL      0.253376
    148 H68         8.4710   -1.6530   -1.8300 h1        1 MOL      0.055957
    149 H69         6.8300   -0.8520   -3.2630 hc        1 MOL      0.071639
    150 H70         6.0910   -2.2170   -2.3580 hc        1 MOL      0.071639
    151 H71         5.7320   -0.4150   -2.0430 hc        1 MOL      0.071639
    152 N14         9.2430    0.6770   -2.1040 n         1 MOL     -0.556102
    153 C49         9.6480    2.0700   -2.2070 c3        1 MOL      0.080854
    154 C50        10.4310    2.7020   -1.0150 c         1 MOL      0.308060
    155 O20        10.5500    3.9670   -0.8600 o         1 MOL     -0.480203
    156 C51         8.6290    3.0460   -2.8160 c3        1 MOL      0.271691
    157 C52         8.4300    2.7290   -4.3140 c3        1 MOL     -0.237515
    158 C53         7.4180    3.7270   -4.8780 c         1 MOL      0.682616
    159 O21         7.7200    4.3600   -5.9270 o         1 MOL     -0.667737
    160 O22         6.2430    3.6970   -4.4480 o         1 MOL     -0.667737
    161 H72         9.5520    0.0150   -2.7930 hn        1 MOL      0.324008
    162 H73        10.4080    2.1490   -2.9910 h1        1 MOL      0.058425
    163 H74         8.9330    4.0860   -2.7040 hc        1 MOL     -0.039488
    164 H75         7.6470    3.0360   -2.3350 hc        1 MOL     -0.039488
    165 H76         8.0870    1.7120   -4.5220 hc        1 MOL      0.023449
    166 H77         9.4240    2.8900   -4.7340 hc        1 MOL      0.023449
    167 N15        11.0110    1.8950   -0.1050 n         1 MOL     -0.271257
    168 C54        11.2460    2.2450    1.2840 c3        1 MOL     -0.073929
    169 H78        10.9230    3.2720    1.4590 h1        1 MOL      0.072150
    170 H79        10.6810    1.5730    1.9290 h1        1 MOL      0.072150
    171 H80        12.3090    2.1560    1.5070 h1        1 MOL      0.072150
    172 H81        10.9980    0.9180   -0.3740 hn        1 MOL      0.226114
    173 Ca1         0.3300    0.6190   -1.7150 Ca        1 MOL      1.714564
    174 O23        -0.5480   -0.9100   -3.7140 oh        1 MOL     -0.800028
    175 H82        -1.1880   -0.3820   -4.1950 ho        1 MOL      0.394628
    176 H83        -0.3970   -1.6690   -4.2780 ho        1 MOL      0.394628
    177 O24        -1.2010    2.2260   -3.1560 oh        1 MOL     -0.800028
    178 H84        -1.0800    2.0450   -4.0840 ho        1 MOL      0.394628
    179 H85        -2.1110    2.5280   -3.0940 ho        1 MOL      0.394628
    180 O25         2.9210    0.2320   -1.7610 oh        1 MOL     -0.800028
    181 H86         3.4960    0.3230   -0.9900 ho        1 MOL      0.394628
    182 H87         3.5060    0.3480   -2.5050 ho        1 MOL      0.394628
    183 O26         0.9580    3.0510   -0.8430 oh        1 MOL     -0.800028
    184 H88         1.7350    3.5610   -1.0630 ho        1 MOL      0.394628
    185 H89         0.2860    3.7040   -0.6320 ho        1 MOL      0.394628
    186 O27         1.5940    1.1620   -4.0840 oh        1 MOL     -0.800028
    187 H90         1.1280    1.7380   -4.6950 ho        1 MOL      0.394628
    188 H91         2.0040    0.5140   -4.6430 ho        1 MOL      0.394628
@<TRIPOS>BOND
     1    1    2 1   
     2    1    4 1   
     3    1    5 1   
     4    1    6 1   
     5    2    3 2   
     6    2    7 1   
     7    7    8 1   
     8    7   15 1   
     9    8    9 1   
    10    8   11 1   
    11    8   16 1   
    12    9   10 2   
    13    9   19 1   
    14   11   12 1   
    15   11   17 1   
    16   11   18 1   
    17   12   13 1   
    18   12   14 1   
    19   19   20 1   
    20   19   28 1   
    21   20   21 1   
    22   20   23 1   
    23   20   29 1   
    24   21   22 2   
    25   21   41 1   
    26   23   24 1   
    27   23   30 1   
    28   23   31 1   
    29   24   25 1   
    30   24   32 1   
    31   24   33 1   
    32   25   26 1   
    33   25   34 1   
    34   25   35 1   
    35   26   27 1   
    36   26   36 1   
    37   26   37 1   
    38   27   38 1   
    39   27   39 1   
    40   27   40 1   
    41   41   42 1   
    42   41   49 1   
    43   42   43 1   
    44   42   45 1   
    45   42   50 1   
    46   43   44 2   
    47   43   53 1   
    48   45   46 1   
    49   45   51 1   
    50   45   52 1   
    51   46   47 1   
    52   46   48 1   
    53   53   54 1   
    54   53   57 1   
    55   54   55 1   
    56   54   58 1   
    57   54   59 1   
    58   55   56 2   
    59   55   60 1   
    60   60   61 1   
    61   60   68 1   
    62   61   62 1   
    63   61   64 1   
    64   61   69 1   
    65   62   63 2   
    66   62   74 1   
    67   64   65 1   
    68   64   70 1   
    69   64   71 1   
    70   65   66 1   
    71   65   67 2   
    72   66   72 1   
    73   66   73 1   
    74   74   75 1   
    75   74   78 1   
    76   75   76 1   
    77   75   79 1   
    78   75   80 1   
    79   76   77 2   
    80   76   81 1   
    81   81   82 1   
    82   81   93 1   
    83   82   83 1   
    84   82   85 1   
    85   82   94 1   
    86   83   84 2   
    87   83  102 1   
    88   85   86 1   
    89   85   95 1   
    90   85   96 1   
    91   86   87 ar  
    92   86   88 ar  
    93   87   89 ar  
    94   87   97 1   
    95   88   90 ar  
    96   88   98 1   
    97   89   91 ar  
    98   89   99 1   
    99   90   91 ar  
   100   90  100 1   
   101   91   92 1   
   102   92  101 1   
   103  102  103 1   
   104  102  110 1   
   105  103  104 1   
   106  103  106 1   
   107  103  111 1   
   108  104  105 2   
   109  104  121 1   
   110  106  107 1   
   111  106  108 1   
   112  106  112 1   
   113  107  109 1   
   114  107  113 1   
   115  107  114 1   
   116  108  115 1   
   117  108  116 1   
   118  108  117 1   
   119  109  118 1   
   120  109  119 1   
   121  109  120 1   
   122  121  122 1   
   123  121  127 1   
   124  122  123 1   
   125  122  125 1   
   126  122  128 1   
   127  123  124 2   
   128  123  132 1   
   129  125  126 1   
   130  125  129 1   
   131  125  130 1   
   132  126  131 1   
   133  132  133 1   
   134  132  137 1   
   135  133  134 1   
   136  133  136 1   
   137  133  138 1   
   138  134  135 2   
   139  134  142 1   
   140  136  139 1   
   141  136  140 1   
   142  136  141 1   
   143  142  143 1   
   144  142  147 1   
   145  143  144 1   
   146  143  146 1   
   147  143  148 1   
   148  144  145 2   
   149  144  152 1   
   150  146  149 1   
   151  146  150 1   
   152  146  151 1   
   153  152  153 1   
   154  152  161 1   
   155  153  154 1   
   156  153  156 1   
   157  153  162 1   
   158  154  155 2   
   159  154  167 1   
   160  156  157 1   
   161  156  163 1   
   162  156  164 1   
   163  157  158 1   
   164  157  165 1   
   165  157  166 1   
   166  158  159 1   
   167  158  160 1   
   168  167  168 1   
   169  167  172 1   
   170  168  169 1   
   171  168  170 1   
   172  168  171 1   
   173  174  175 1   
   174  174  176 1   
   175  177  178 1   
   176  177  179 1   
   177  180  181 1   
   178  180  182 1   
   179  183  184 1   
   180  183  185 1   
   181  186  187 1   
   182  186  188 1   
@<TRIPOS>SUBSTRUCTURE
     1 MOL         1 TEMP              0 ****  ****    0 ROOT
