@<TRIPOS>MOLECULE
MOL
  192   187     1     0     0
SMALL
resp


@<TRIPOS>ATOM
      1 C1          9.1580    1.4840    2.1440 c3        1 MOL     -0.463278
      2 C2          8.2190    1.3080    0.9970 c         1 MOL      0.802518
      3 O1          7.2410    2.0720    0.8990 o         1 MOL     -0.613408
      4 H1          9.1380    2.5230    2.4720 hc        1 MOL      0.112805
      5 H2          8.8520    0.8380    2.9670 hc        1 MOL      0.112805
      6 H3         10.1680    1.2220    1.8310 hc        1 MOL      0.112805
      7 N1          8.4330    0.2440    0.1300 n         1 MOL     -0.642810
      8 C3          7.5810   -0.0070   -1.0940 c3        1 MOL      0.111824
      9 C4          6.9070   -1.4020   -1.0360 c         1 MOL      0.514054
     10 O2          6.4840   -1.8950   -2.0520 o         1 MOL     -0.430330
     11 C5          8.2700    0.2340   -2.4100 c3        1 MOL     -0.060527
     12 C6          9.6440   -0.4670   -2.6360 c         1 MOL      0.625569
     13 O3         10.1520   -1.1530   -1.7260 o         1 MOL     -0.613314
     14 O4         10.0840   -0.5150   -3.7980 o         1 MOL     -0.613314
     15 H4          9.0640   -0.4760    0.4480 hn        1 MOL      0.262974
     16 H5          6.6710    0.5950   -1.0750 h1        1 MOL      0.048027
     17 H6          8.4620    1.2900   -2.5730 hc        1 MOL      0.044562
     18 H7          7.5820   -0.1080   -3.1810 hc        1 MOL      0.044562
     19 N2          6.9170   -2.0950    0.1010 n         1 MOL     -0.528810
     20 C7          6.3840   -3.4540    0.3090 c3        1 MOL      0.367566
     21 C8          4.9170   -3.7160   -0.2420 c         1 MOL      0.241900
     22 O5          4.6390   -4.6680   -0.9530 o         1 MOL     -0.513659
     23 C9          6.4810   -3.7840    1.8100 c3        1 MOL     -0.155387
     24 C10         7.9270   -3.9900    2.2260 c3        1 MOL     -0.107255
     25 C11         8.0840   -4.5470    3.6620 c3        1 MOL      0.133323
     26 C12         9.5540   -4.6440    3.9730 c3        1 MOL     -0.073918
     27 N3          9.8330   -5.0500    5.3400 n4        1 MOL     -0.043444
     28 H8          7.5320   -1.7520    0.8260 hn        1 MOL      0.227286
     29 H9          7.0020   -4.1280   -0.2870 h1        1 MOL      0.036498
     30 H10         5.9750   -4.7250    2.0210 hc        1 MOL      0.051305
     31 H11         6.0830   -2.9370    2.3790 hc        1 MOL      0.051305
     32 H12         8.3730   -2.9950    2.2000 hc        1 MOL      0.056667
     33 H13         8.3440   -4.6820    1.4920 hc        1 MOL      0.056667
     34 H14         7.6480   -5.5450    3.7730 hc        1 MOL     -0.004511
     35 H15         7.5910   -3.9400    4.4150 hc        1 MOL     -0.004511
     36 H16         9.9080   -3.6310    3.8190 hx        1 MOL      0.083263
     37 H17         9.9200   -5.3900    3.2610 hx        1 MOL      0.083263
     38 H18         9.4920   -5.9570    5.6570 hn        1 MOL      0.202370
     39 H19        10.8290   -5.0720    5.4960 hn        1 MOL      0.202370
     40 H20         9.4290   -4.3980    5.9990 hn        1 MOL      0.202370
     41 N4          3.8940   -2.9570    0.0250 n         1 MOL     -0.315981
     42 C13         3.7560   -1.7620    0.9310 c3        1 MOL      0.173101
     43 C14         3.8450   -0.3930    0.1090 c         1 MOL      0.359457
     44 O6          4.0990   -0.3770   -1.0670 o         1 MOL     -0.414604
     45 C15         2.5200   -1.8110    1.7790 c3        1 MOL     -0.307968
     46 C16         1.3110   -2.0780    0.8300 c         1 MOL      0.787329
     47 O7          1.0280   -1.2650   -0.0470 o         1 MOL     -0.721113
     48 O8          0.7520   -3.2180    0.8710 o         1 MOL     -0.721113
     49 H21         3.1360   -3.3400   -0.5090 hn        1 MOL      0.386329
     50 H22         4.6160   -1.7120    1.6050 h1        1 MOL      0.015522
     51 H23         2.3110   -0.8880    2.3190 hc        1 MOL      0.046135
     52 H24         2.7580   -2.6180    2.4630 hc        1 MOL      0.046135
     53 N5          3.9990    0.7270    0.7990 n         1 MOL     -0.456609
     54 C17         4.1760    2.0030    0.1790 c3        1 MOL      0.108042
     55 C18         2.9300    2.4960   -0.5850 c         1 MOL      0.604331
     56 O9          1.8630    1.9580   -0.5260 o         1 MOL     -0.614042
     57 H25         3.9780    0.7640    1.8140 hn        1 MOL      0.278926
     58 H26         5.0790    1.9790   -0.4370 h1        1 MOL      0.052786
     59 H27         4.4170    2.7420    0.9570 h1        1 MOL      0.052786
     60 N6          3.1950    3.6320   -1.1860 n         1 MOL     -0.451761
     61 C19         2.2760    4.4690   -1.8980 c3        1 MOL      0.082766
     62 C20         2.6090    5.8960   -1.6740 c         1 MOL      0.547081
     63 O10         3.7130    6.2140   -1.2880 o         1 MOL     -0.528803
     64 C21         2.4000    4.1330   -3.3810 c3        1 MOL     -0.237233
     65 C22         2.0360    2.6750   -3.7040 c         1 MOL      0.671468
     66 O11         0.8790    2.1720   -3.4470 o         1 MOL     -0.673474
     67 O12         2.9390    2.0020   -4.2320 o         1 MOL     -0.673474
     68 H28         4.1400    3.9850   -1.1800 hn        1 MOL      0.281811
     69 H29         1.2530    4.3350   -1.5400 h1        1 MOL      0.055308
     70 H30         3.3840    4.3840   -3.7750 hc        1 MOL      0.080550
     71 H31         1.7230    4.8060   -3.8920 hc        1 MOL      0.080550
     72 N7          1.6880    6.8880   -1.7990 n         1 MOL     -0.511422
     73 C23         0.2040    6.7510   -1.9920 c3        1 MOL     -0.037024
     74 C24        -0.6720    6.1860   -0.8010 c         1 MOL      0.630186
     75 O13        -0.3180    6.1500    0.3660 o         1 MOL     -0.523857
     76 H32         1.9380    7.8550   -1.6630 hn        1 MOL      0.336843
     77 H33        -0.0850    6.1870   -2.8690 h1        1 MOL      0.056575
     78 H34        -0.1970    7.7530   -2.1430 h1        1 MOL      0.056575
     79 N8         -1.8400    5.6320   -1.2180 n         1 MOL     -0.634862
     80 C25        -2.7460    4.9570   -0.2300 c3        1 MOL     -0.083956
     81 C26        -1.9920    3.7880    0.4830 c         1 MOL      1.113988
     82 O14        -1.2820    3.0350   -0.2660 o         1 MOL     -0.787522
     83 C27        -3.9720    4.4690   -0.9630 c3        1 MOL      0.267612
     84 C28        -5.0770    3.9400   -0.0950 c3        1 MOL     -0.453451
     85 O15        -3.7070    3.4460   -1.9290 oh        1 MOL     -0.608865
     86 H35        -2.0540    5.7610   -2.1920 hn        1 MOL      0.320454
     87 H36        -3.0540    5.7630    0.4490 h1        1 MOL      0.091092
     88 H37        -4.3170    5.3160   -1.5610 h1        1 MOL      0.069287
     89 H38        -3.5270    3.7890   -2.8110 ho        1 MOL      0.419104
     90 H39        -5.3790    4.6890    0.6350 hc        1 MOL      0.125329
     91 H40        -5.9720    3.8850   -0.7170 hc        1 MOL      0.125329
     92 H41        -4.9070    2.9630    0.3590 hc        1 MOL      0.125329
     93 N9         -2.0290    3.7160    1.7770 n         1 MOL     -0.881484
     94 C29        -1.3570    2.6420    2.5530 c3        1 MOL      0.511876
     95 C30        -1.6280    1.2050    2.1110 c         1 MOL      0.218177
     96 O16        -0.9810    0.6670    1.2340 o         1 MOL     -0.575631
     97 C31         0.2180    2.9460    2.7030 c3        1 MOL     -0.053612
     98 C32         0.4600    4.3220    3.2940 c3        1 MOL     -0.058283
     99 C33         1.0450    1.7750    3.3950 c3        1 MOL     -0.303448
    100 C34        -0.1130    4.5790    4.6940 c3        1 MOL     -0.379764
    101 H42        -2.5590    4.4030    2.2760 hn        1 MOL      0.351415
    102 H43        -1.6490    2.5970    3.6040 h1        1 MOL     -0.051077
    103 H44         0.6520    2.9800    1.7000 hc        1 MOL      0.073973
    104 H45         0.0580    5.1060    2.6390 hc        1 MOL      0.077695
    105 H46         1.5420    4.4470    3.3980 hc        1 MOL      0.077695
    106 H47         1.0720    0.7840    2.9430 hc        1 MOL      0.090909
    107 H48         2.0650    2.1170    3.5190 hc        1 MOL      0.090909
    108 H49         0.6900    1.5610    4.4000 hc        1 MOL      0.090909
    109 H50         0.2340    5.5910    4.9120 hc        1 MOL      0.098839
    110 H51        -1.1990    4.5690    4.7070 hc        1 MOL      0.098839
    111 H52         0.3970    3.9220    5.3930 hc        1 MOL      0.098839
    112 N10        -2.5200    0.5740    2.8560 n         1 MOL     -0.001019
    113 C35        -3.0120   -0.8100    2.6800 c3        1 MOL     -0.422693
    114 C36        -4.4950   -0.9580    2.5820 c         1 MOL      0.519983
    115 O17        -5.0050   -2.0770    2.6410 o         1 MOL     -0.543069
    116 C37        -2.3400   -1.7480    3.7520 c3        1 MOL      0.270800
    117 C38        -2.8450   -1.4010    5.1070 c3        1 MOL     -0.319565
    118 O18        -0.9470   -1.6350    3.8500 oh        1 MOL     -0.520051
    119 H53        -3.0250    1.0650    3.5840 hn        1 MOL      0.193431
    120 H54        -2.8040   -1.1450    1.6690 h1        1 MOL      0.235223
    121 H55        -2.5430   -2.7830    3.5070 h1        1 MOL      0.082770
    122 H56        -0.4890   -1.6650    3.0100 ho        1 MOL      0.329779
    123 H57        -2.2190   -1.8350    5.8870 hc        1 MOL      0.089449
    124 H58        -2.7920   -0.3090    5.2090 hc        1 MOL      0.089449
    125 H59        -3.8880   -1.6960    5.1640 hc        1 MOL      0.089449
    126 N11        -5.2330    0.1350    2.3950 n         1 MOL     -0.085234
    127 C39        -6.6840    0.3020    2.1900 c3        1 MOL     -0.145685
    128 C40        -6.9340   -0.3220    0.7780 c         1 MOL      0.419770
    129 O19        -7.2930    0.4040   -0.1830 o         1 MOL     -0.495721
    130 C41        -7.0340    1.8460    2.1830 c3        1 MOL      0.542621
    131 C42        -8.5040    2.1500    2.3900 c3        1 MOL     -0.405328
    132 O20        -6.2660    2.5060    3.0630 oh        1 MOL     -0.712939
    133 H60        -4.6900    0.9830    2.2810 hn        1 MOL      0.118619
    134 H61        -7.2760   -0.2820    2.8870 h1        1 MOL      0.072815
    135 H62        -6.8840    2.2450    1.1820 h1        1 MOL     -0.028390
    136 H63        -6.5860    3.3970    3.2160 ho        1 MOL      0.429832
    137 H64        -8.7060    3.2150    2.3310 hc        1 MOL      0.090871
    138 H65        -9.0410    1.6810    1.5640 hc        1 MOL      0.090871
    139 H66        -8.8930    1.7960    3.3450 hc        1 MOL      0.090871
    140 N12        -6.8510   -1.6430    0.6710 n         1 MOL     -0.446746
    141 C43        -6.7740   -2.4720   -0.5230 c3        1 MOL      0.037269
    142 C44        -5.4280   -2.2290   -1.1950 c         1 MOL      0.555605
    143 O21        -5.0310   -1.0720   -1.4980 o         1 MOL     -0.516867
    144 C45        -8.0010   -2.4530   -1.3900 c3        1 MOL     -0.234379
    145 C46        -9.2720   -3.2430   -0.9710 c3        1 MOL     -0.187214
    146 C47       -10.0010   -2.4430    0.1210 c3        1 MOL      0.141917
    147 C48       -11.3600   -3.0170    0.3900 c3        1 MOL     -0.070295
    148 N13       -11.8970   -2.2520    1.4680 n4        1 MOL     -0.186287
    149 H67        -6.5330   -2.0870    1.5220 hn        1 MOL      0.286177
    150 H68        -6.7250   -3.4700   -0.1110 h1        1 MOL      0.094775
    151 H69        -7.6870   -2.9350   -2.3150 hc        1 MOL      0.129929
    152 H70        -8.3190   -1.4240   -1.5530 hc        1 MOL      0.129929
    153 H71        -9.0830   -4.2640   -0.6450 hc        1 MOL      0.074993
    154 H72        -9.9300   -3.1700   -1.8500 hc        1 MOL      0.074993
    155 H73       -10.0020   -1.3870   -0.1570 hc        1 MOL      0.019796
    156 H74        -9.5200   -2.4750    1.0980 hc        1 MOL      0.019796
    157 H75       -11.3790   -4.0750    0.6580 hx        1 MOL      0.092414
    158 H76       -12.0410   -2.8120   -0.4310 hx        1 MOL      0.092414
    159 H77       -11.5190   -2.4570    2.3810 hn        1 MOL      0.209743
    160 H78       -11.8710   -1.2860    1.1790 hn        1 MOL      0.209743
    161 H79       -12.8620   -2.5170    1.5220 hn        1 MOL      0.209743
    162 N14        -4.6310   -3.3010   -1.4720 n         1 MOL     -0.546357
    163 C49        -3.3270   -3.0720   -2.1490 c3        1 MOL      0.153642
    164 C50        -2.2080   -2.7610   -1.1180 c         1 MOL      0.360885
    165 O22        -1.5860   -1.7060   -1.1420 o         1 MOL     -0.521681
    166 C51        -3.0030   -4.2330   -3.1100 c3        1 MOL     -0.031281
    167 C52        -4.0120   -4.2660   -4.2580 c3        1 MOL     -0.183099
    168 C53        -3.6140   -5.5140   -5.0940 c         1 MOL      0.701610
    169 O23        -3.1250   -5.2320   -6.2100 o         1 MOL     -0.655948
    170 O24        -3.9480   -6.6320   -4.6550 o         1 MOL     -0.655948
    171 H80        -4.9710   -4.2450   -1.3960 hn        1 MOL      0.313113
    172 H81        -3.3150   -2.1710   -2.7580 h1        1 MOL      0.061907
    173 H82        -2.9510   -5.1980   -2.6140 hc        1 MOL      0.061424
    174 H83        -2.0380   -4.0960   -3.5990 hc        1 MOL      0.061424
    175 H84        -3.9330   -3.3060   -4.7460 hc        1 MOL      0.025965
    176 H85        -5.0720   -4.4290   -4.0690 hc        1 MOL      0.025965
    177 N15        -1.9170   -3.5320   -0.0540 n         1 MOL     -0.203186
    178 C54        -2.3000   -4.9040    0.2290 c3        1 MOL     -0.118748
    179 H86        -2.7250   -5.3540   -0.6680 h1        1 MOL      0.047302
    180 H87        -1.4220   -5.4710    0.5390 h1        1 MOL      0.047302
    181 H88        -3.0420   -4.9170    1.0280 h1        1 MOL      0.047302
    182 H89        -1.1610   -3.2570    0.5500 hn        1 MOL      0.300835
    183 Ca1        -0.3070    0.6550   -1.1810 Ca        1 MOL      1.832750
    184 O25        -1.7490    0.4410   -3.4700 oh        1 MOL     -0.916562
    185 H90        -1.3720    0.1850   -4.3050 ho        1 MOL      0.437035
    186 H91        -2.6780    0.5520   -3.6490 ho        1 MOL      0.437035
    187 O26        -3.1300    1.0080   -0.8640 oh        1 MOL     -0.916562
    188 H92        -3.8150    0.3340   -0.8830 ho        1 MOL      0.437035
    189 H93        -3.5210    1.7570   -1.3130 ho        1 MOL      0.437035
    190 O27         1.7370   -0.3590   -2.6560 oh        1 MOL     -0.916562
    191 H94         2.6660   -0.4690   -2.4320 ho        1 MOL      0.437035
    192 H95         1.7300    0.3520   -3.2970 ho        1 MOL      0.437035
@<TRIPOS>BOND
     1    1    2 1   
     2    1    4 1   
     3    1    5 1   
     4    1    6 1   
     5    2    3 2   
     6    2    7 1   
     7    7    8 1   
     8    7   15 1   
     9    8    9 1   
    10    8   11 1   
    11    8   16 1   
    12    9   10 2   
    13    9   19 1   
    14   11   12 1   
    15   11   17 1   
    16   11   18 1   
    17   12   13 1   
    18   12   14 1   
    19   19   20 1   
    20   19   28 1   
    21   20   21 1   
    22   20   23 1   
    23   20   29 1   
    24   21   22 2   
    25   21   41 1   
    26   23   24 1   
    27   23   30 1   
    28   23   31 1   
    29   24   25 1   
    30   24   32 1   
    31   24   33 1   
    32   25   26 1   
    33   25   34 1   
    34   25   35 1   
    35   26   27 1   
    36   26   36 1   
    37   26   37 1   
    38   27   38 1   
    39   27   39 1   
    40   27   40 1   
    41   41   42 1   
    42   41   49 1   
    43   42   43 1   
    44   42   45 1   
    45   42   50 1   
    46   43   44 2   
    47   43   53 1   
    48   45   46 1   
    49   45   51 1   
    50   45   52 1   
    51   46   47 1   
    52   46   48 1   
    53   53   54 1   
    54   53   57 1   
    55   54   55 1   
    56   54   58 1   
    57   54   59 1   
    58   55   56 2   
    59   55   60 1   
    60   60   61 1   
    61   60   68 1   
    62   61   62 1   
    63   61   64 1   
    64   61   69 1   
    65   62   63 2   
    66   62   72 1   
    67   64   65 1   
    68   64   70 1   
    69   64   71 1   
    70   65   66 1   
    71   65   67 1   
    72   72   73 1   
    73   72   76 1   
    74   73   74 1   
    75   73   77 1   
    76   73   78 1   
    77   74   75 2   
    78   74   79 1   
    79   79   80 1   
    80   79   86 1   
    81   80   81 1   
    82   80   83 1   
    83   80   87 1   
    84   81   82 2   
    85   81   93 1   
    86   83   84 1   
    87   83   85 1   
    88   83   88 1   
    89   84   90 1   
    90   84   91 1   
    91   84   92 1   
    92   85   89 1   
    93   93   94 1   
    94   93  101 1   
    95   94   95 1   
    96   94   97 1   
    97   94  102 1   
    98   95   96 2   
    99   95  112 1   
   100   97   98 1   
   101   97   99 1   
   102   97  103 1   
   103   98  100 1   
   104   98  104 1   
   105   98  105 1   
   106   99  106 1   
   107   99  107 1   
   108   99  108 1   
   109  100  109 1   
   110  100  110 1   
   111  100  111 1   
   112  112  113 1   
   113  112  119 1   
   114  113  114 1   
   115  113  116 1   
   116  113  120 1   
   117  114  115 2   
   118  114  126 1   
   119  116  117 1   
   120  116  118 1   
   121  116  121 1   
   122  117  123 1   
   123  117  124 1   
   124  117  125 1   
   125  118  122 1   
   126  126  127 1   
   127  126  133 1   
   128  127  128 1   
   129  127  130 1   
   130  127  134 1   
   131  128  129 2   
   132  128  140 1   
   133  130  131 1   
   134  130  132 1   
   135  130  135 1   
   136  131  137 1   
   137  131  138 1   
   138  131  139 1   
   139  132  136 1   
   140  140  141 1   
   141  140  149 1   
   142  141  142 1   
   143  141  144 1   
   144  141  150 1   
   145  142  143 2   
   146  142  162 1   
   147  144  145 1   
   148  144  151 1   
   149  144  152 1   
   150  145  146 1   
   151  145  153 1   
   152  145  154 1   
   153  146  147 1   
   154  146  155 1   
   155  146  156 1   
   156  147  148 1   
   157  147  157 1   
   158  147  158 1   
   159  148  159 1   
   160  148  160 1   
   161  148  161 1   
   162  162  163 1   
   163  162  171 1   
   164  163  164 1   
   165  163  166 1   
   166  163  172 1   
   167  164  165 2   
   168  164  177 1   
   169  166  167 1   
   170  166  173 1   
   171  166  174 1   
   172  167  168 1   
   173  167  175 1   
   174  167  176 1   
   175  168  169 1   
   176  168  170 1   
   177  177  178 1   
   178  177  182 1   
   179  178  179 1   
   180  178  180 1   
   181  178  181 1   
   182  184  185 1   
   183  184  186 1   
   184  187  188 1   
   185  187  189 1   
   186  190  191 1   
   187  190  192 1   
@<TRIPOS>SUBSTRUCTURE
     1 MOL         1 TEMP              0 ****  ****    0 ROOT
