@<TRIPOS>MOLECULE
MOL
  181   177     1     0     0
SMALL
resp


@<TRIPOS>ATOM
      1 C1         -2.9220   -5.3180   -2.9290 c3        1 MOL     -0.383253
      2 C2         -4.0480   -5.6170   -1.9600 c         1 MOL      0.703765
      3 O1         -3.8630   -6.2430   -0.9120 o         1 MOL     -0.591009
      4 H1         -2.0130   -5.8190   -2.5960 hc        1 MOL      0.093176
      5 H2         -3.1920   -5.6800   -3.9220 hc        1 MOL      0.093176
      6 H3         -2.7510   -4.2420   -2.9670 hc        1 MOL      0.093176
      7 N1         -5.2140   -5.1310   -2.3150 n         1 MOL     -0.584364
      8 C3         -6.4890   -5.0910   -1.5730 c3        1 MOL      0.246710
      9 C4         -6.4360   -4.0850   -0.3770 c         1 MOL      0.579898
     10 O2         -7.1920   -3.1200   -0.3770 o         1 MOL     -0.501784
     11 C5         -7.5800   -4.8720   -2.6090 c3        1 MOL     -0.305502
     12 C6         -8.9500   -4.8160   -1.9620 c         1 MOL      0.776909
     13 O3         -9.2940   -5.8040   -1.2840 o         1 MOL     -0.754042
     14 O4         -9.7940   -3.8820   -2.2270 o         1 MOL     -0.754042
     15 H4         -5.1290   -4.4360   -3.0490 hn        1 MOL      0.295471
     16 H5         -6.5810   -6.0720   -1.1090 h1        1 MOL      0.030744
     17 H6         -7.5580   -5.6660   -3.3650 hc        1 MOL      0.035018
     18 H7         -7.3860   -3.9210   -3.1050 hc        1 MOL      0.035018
     19 N2         -5.6280   -4.3060    0.6830 n         1 MOL     -0.713507
     20 C7         -5.4850   -3.4280    1.8900 c3        1 MOL      0.752200
     21 C8         -4.0490   -3.5450    2.4650 c         1 MOL      0.175458
     22 O5         -3.3270   -4.5600    2.3140 o         1 MOL     -0.487715
     23 C9         -6.5470   -3.9510    2.8610 c3        1 MOL     -0.494758
     24 H8         -5.0160   -5.1080    0.5880 hn        1 MOL      0.309147
     25 H9         -5.7480   -2.4030    1.5970 h1        1 MOL     -0.119762
     26 H10        -7.5260   -3.9140    2.3710 hc        1 MOL      0.112846
     27 H11        -6.3960   -5.0360    2.9580 hc        1 MOL      0.112846
     28 H12        -6.5930   -3.4620    3.8330 hc        1 MOL      0.112846
     29 N3         -3.6580   -2.5290    3.2370 n         1 MOL     -0.241834
     30 C10        -4.3070   -1.3280    3.6480 c3        1 MOL      0.030498
     31 C11        -4.3420   -0.2550    2.5430 c         1 MOL      0.615983
     32 O6         -3.4370   -0.2470    1.6840 o         1 MOL     -0.532461
     33 C12        -3.5310   -0.7740    4.8630 c3        1 MOL     -0.372803
     34 C13        -2.0330   -0.5170    4.6120 c         1 MOL      0.823113
     35 O7         -1.6770    0.6570    4.3510 o         1 MOL     -0.792985
     36 O8         -1.2440   -1.4780    4.4780 o         1 MOL     -0.792985
     37 H13        -2.7680   -2.6940    3.6730 hn        1 MOL      0.256698
     38 H14        -5.3190   -1.6230    3.9150 h1        1 MOL      0.037434
     39 H15        -3.5680   -1.5170    5.6640 hc        1 MOL      0.087685
     40 H16        -3.9540    0.1850    5.1670 hc        1 MOL      0.087685
     41 N4         -5.3750    0.6490    2.6100 n         1 MOL     -0.522985
     42 C14        -5.8180    1.6830    1.5480 c3        1 MOL      0.086655
     43 C15        -6.5290    1.0360    0.3280 c         1 MOL      0.524082
     44 O9         -6.7520   -0.1830    0.2670 o         1 MOL     -0.477056
     45 H17        -6.0420    0.4090    3.3340 hn        1 MOL      0.297493
     46 H18        -4.9960    2.2190    1.0630 h1        1 MOL      0.048572
     47 H19        -6.4580    2.4750    1.9490 h1        1 MOL      0.048572
     48 N5         -6.8470    1.7940   -0.7240 n         1 MOL     -0.439456
     49 C16        -6.4620    3.2530   -1.0570 c3        1 MOL      0.115912
     50 C17        -5.6830    3.4690   -2.3150 c         1 MOL      0.592247
     51 O10        -5.9820    2.7280   -3.2880 o         1 MOL     -0.517019
     52 C18        -7.7800    4.1300   -1.1800 c3        1 MOL     -0.318005
     53 C19        -8.6640    3.6450   -0.0260 c         1 MOL      0.706278
     54 N6         -9.7760    3.0330   -0.1780 n         1 MOL     -0.802987
     55 O11        -8.2940    3.9600    1.0970 o         1 MOL     -0.581032
     56 H20        -7.3020    1.3220   -1.4870 hn        1 MOL      0.307283
     57 H21        -5.8880    3.7470   -0.2780 h1        1 MOL      0.027535
     58 H22        -8.2970    3.9800   -2.1380 hc        1 MOL      0.073245
     59 H23        -7.5100    5.1690   -0.9930 hc        1 MOL      0.073245
     60 H24       -10.2620    3.1000   -1.0720 hn        1 MOL      0.384904
     61 H25       -10.1710    2.5490    0.6110 hn        1 MOL      0.384904
     62 N7         -4.6900    4.3500   -2.2780 n         1 MOL     -0.502821
     63 C20        -3.7450    4.5640   -3.3850 c3        1 MOL     -0.047278
     64 C21        -2.3170    4.9330   -3.0980 c         1 MOL      0.602834
     65 O12        -1.4820    4.9280   -3.9960 o         1 MOL     -0.577771
     66 H26        -4.8190    5.1180   -1.6470 hn        1 MOL      0.318680
     67 H27        -4.0780    5.4400   -3.9350 h1        1 MOL      0.083567
     68 H28        -3.8160    3.7170   -4.0660 h1        1 MOL      0.083567
     69 N8         -2.0010    5.2470   -1.8460 n         1 MOL     -0.305618
     70 C22        -0.6470    5.5290   -1.3880 c3        1 MOL     -0.491366
     71 C23         0.1660    4.2210   -1.1820 c         1 MOL      0.873414
     72 O13        -0.2580    3.3530   -0.4060 o         1 MOL     -0.633720
     73 C24        -0.6690    6.5060   -0.1450 c3        1 MOL      0.530307
     74 C25        -1.3400    7.7480   -0.6630 c3        1 MOL     -0.476329
     75 O14        -1.3380    5.9000    0.9060 oh        1 MOL     -0.583886
     76 H29        -2.7170    5.1470   -1.1460 hn        1 MOL      0.271084
     77 H30        -0.1440    6.0640   -2.1840 h1        1 MOL      0.163541
     78 H31         0.3530    6.7900    0.0950 h1        1 MOL      0.003957
     79 H32        -0.6500    5.7300    1.5430 ho        1 MOL      0.382664
     80 H33        -2.4230    7.6460   -0.5550 hc        1 MOL      0.110709
     81 H34        -0.8710    8.6180   -0.2040 hc        1 MOL      0.110709
     82 H35        -1.0970    7.8100   -1.7240 hc        1 MOL      0.110709
     83 N9          1.3070    4.1630   -1.8990 n         1 MOL     -0.455529
     84 C26         2.4130    3.2250   -1.6690 c3        1 MOL     -0.084567
     85 C27         3.2340    3.7650   -0.4150 c         1 MOL      0.211143
     86 O15         3.5430    4.9560   -0.4550 o         1 MOL     -0.518247
     87 C28         3.2630    3.1370   -2.9340 c3        1 MOL      0.162220
     88 C29         4.5480    2.3270   -2.7210 c3        1 MOL     -0.103908
     89 C30         2.4490    2.6220   -4.0890 c3        1 MOL     -0.086251
     90 C31         5.6250    2.4330   -3.8230 c3        1 MOL     -0.108257
     91 H36         1.6000    4.9540   -2.4720 hn        1 MOL      0.259906
     92 H37         2.0040    2.2320   -1.4520 h1        1 MOL      0.112007
     93 H38         3.6210    4.1370   -3.1490 hc        1 MOL      0.012122
     94 H39         4.3930    1.2510   -2.6350 hc        1 MOL      0.068450
     95 H40         5.0480    2.5790   -1.7820 hc        1 MOL      0.068450
     96 H41         3.0680    2.6390   -4.9870 hc        1 MOL      0.016014
     97 H42         2.2660    1.5780   -3.8160 hc        1 MOL      0.016014
     98 H43         1.5030    3.1490   -4.2280 hc        1 MOL      0.016014
     99 H44         6.6480    2.1790   -3.5380 hc        1 MOL      0.021701
    100 H45         5.3180    1.8010   -4.6590 hc        1 MOL      0.021701
    101 H46         5.6150    3.4810   -4.1210 hc        1 MOL      0.021701
    102 N10         3.6040    2.8710    0.4750 n         1 MOL      0.173387
    103 C32         4.5690    3.2000    1.5740 c3        1 MOL     -0.031395
    104 C33         5.5720    2.1330    1.7320 c         1 MOL      0.500462
    105 O16         6.2530    2.0490    2.7650 o         1 MOL     -0.515951
    106 C34         3.8020    3.4970    2.9370 c3        1 MOL      0.034542
    107 C35         2.6760    2.5430    3.3460 c         1 MOL      0.629475
    108 O17         1.4810    2.9190    3.2140 o         1 MOL     -0.736650
    109 O18         2.9260    1.3390    3.5740 o         1 MOL     -0.736650
    110 H47         3.1790    1.9500    0.5800 hn        1 MOL      0.039768
    111 H48         4.9860    4.1460    1.2050 h1        1 MOL      0.038130
    112 H49         3.2990    4.4430    2.7570 hc        1 MOL     -0.016356
    113 H50         4.4830    3.6840    3.7660 hc        1 MOL     -0.016356
    114 N11         5.8140    1.3390    0.6350 n         1 MOL     -0.385187
    115 C36         6.7530    0.1930    0.7570 c3        1 MOL      0.147720
    116 C37         6.4280   -0.9160   -0.3150 c         1 MOL      0.545582
    117 O19         6.3120   -0.5300   -1.4890 o         1 MOL     -0.613554
    118 C38         8.1830    0.7290    0.5290 c3        1 MOL     -0.368164
    119 C39         9.2460   -0.3870    0.6090 ca        1 MOL      0.137155
    120 C40         9.9420   -0.5840    1.8400 ca        1 MOL     -0.191121
    121 C41         9.4950   -1.3180   -0.4240 ca        1 MOL     -0.191121
    122 C42        10.7390   -1.7130    2.0590 ca        1 MOL     -0.107026
    123 C43        10.2930   -2.4630   -0.2350 ca        1 MOL     -0.107026
    124 C44        10.9040   -2.6590    1.0040 ca        1 MOL     -0.141225
    125 H51         5.3540    1.4410   -0.2520 hn        1 MOL      0.167931
    126 H52         6.6160   -0.2750    1.7320 h1        1 MOL      0.052793
    127 H53         8.5050    1.4820    1.2590 hc        1 MOL      0.136523
    128 H54         8.2200    1.1970   -0.4550 hc        1 MOL      0.136523
    129 H55         9.8830    0.0930    2.6800 ha        1 MOL      0.129549
    130 H56         8.9840   -1.1370   -1.3530 ha        1 MOL      0.129549
    131 H57        11.2360   -1.8960    3.0060 ha        1 MOL      0.108741
    132 H58        10.4540   -3.1560   -1.0430 ha        1 MOL      0.108741
    133 H59        11.3990   -3.5810    1.2830 ha        1 MOL      0.101843
    134 N12         6.3600   -2.2860   -0.0500 n         1 MOL      0.063829
    135 C45         6.5050   -3.2460   -1.1220 c3        1 MOL      0.035480
    136 C46         5.1870   -3.5430   -1.9510 c         1 MOL      0.331355
    137 O20         5.0900   -4.4440   -2.7790 o         1 MOL     -0.505607
    138 C47         7.1190   -4.5430   -0.4720 c3        1 MOL     -0.187325
    139 C48         6.6790   -4.3830    0.9540 c3        1 MOL     -0.034455
    140 C49         6.5570   -2.9080    1.2580 c3        1 MOL     -0.045056
    141 H60         7.2730   -2.9520   -1.8400 h1        1 MOL      0.036845
    142 H61         6.6090   -5.3620   -0.9860 hc        1 MOL      0.063901
    143 H62         8.1990   -4.4940   -0.5930 hc        1 MOL      0.063901
    144 H63         5.7020   -4.8690    1.0460 hc        1 MOL      0.036429
    145 H64         7.3220   -4.8930    1.6670 hc        1 MOL      0.036429
    146 H65         5.7760   -2.7530    1.9980 h1        1 MOL      0.043950
    147 H66         7.5360   -2.5910    1.6170 h1        1 MOL      0.043950
    148 N13         4.1270   -2.7220   -1.8110 n         1 MOL     -0.066311
    149 C50         2.8710   -2.8230   -2.5940 c3        1 MOL     -0.238264
    150 C51         3.0690   -3.0580   -4.0460 c         1 MOL      0.525864
    151 O21         2.3710   -3.9290   -4.6100 o         1 MOL     -0.534564
    152 C52         2.1730   -1.4520   -2.4600 c3        1 MOL      0.208358
    153 C53         1.3880   -1.1930   -1.0970 c3        1 MOL     -0.152114
    154 C54         2.1600   -0.6680    0.1230 c         1 MOL      0.704879
    155 O22         3.1510   -1.3230    0.5160 o         1 MOL     -0.688975
    156 O23         1.7230    0.3600    0.7300 o         1 MOL     -0.688975
    157 H67         4.1220   -2.1000   -1.0260 hn        1 MOL      0.103255
    158 H68         2.3090   -3.6500   -2.1480 h1        1 MOL      0.143607
    159 H69         1.4590   -1.3590   -3.2780 hc        1 MOL     -0.038008
    160 H70         2.8470   -0.6150   -2.5780 hc        1 MOL     -0.038008
    161 H71         0.8150   -2.0810   -0.8030 hc        1 MOL      0.020327
    162 H72         0.5820   -0.4890   -1.2560 hc        1 MOL      0.020327
    163 N14         3.9940   -2.2770   -4.6750 n         1 MOL     -0.287995
    164 C55         4.2230   -2.2300   -6.1470 c3        1 MOL     -0.077231
    165 H73         3.7370   -1.3460   -6.5600 h1        1 MOL      0.056834
    166 H74         5.2930   -2.1830   -6.3470 h1        1 MOL      0.056834
    167 H75         3.8050   -3.1240   -6.6100 h1        1 MOL      0.056834
    168 H76         4.5310   -1.5960   -4.1610 hn        1 MOL      0.231978
    169 Ca1         0.5430    0.3890    3.1600 Ca        1 MOL      1.715695
    170 O24        -1.0420    1.7740    1.6400 oh        1 MOL     -0.764055
    171 H77        -0.7210    2.4960    1.1090 ho        1 MOL      0.389113
    172 H78        -1.8340    1.4820    1.1860 ho        1 MOL      0.389113
    173 O25         0.9380    0.2970    5.7890 oh        1 MOL     -0.764055
    174 H79         0.7050   -0.2610    6.5250 ho        1 MOL      0.389113
    175 H80         0.8270    1.1890    6.1120 ho        1 MOL      0.389113
    176 O26         1.8270   -2.1270    3.9830 oh        1 MOL     -0.764055
    177 H81         1.6700   -2.8090    3.3260 ho        1 MOL      0.389113
    178 H82         1.5010   -2.5030    4.8030 ho        1 MOL      0.389113
    179 O27        -0.9340   -1.3450    1.6360 oh        1 MOL     -0.764055
    180 H83        -0.8830   -2.1910    2.0850 ho        1 MOL      0.389113
    181 H84        -1.8760   -1.1510    1.6020 ho        1 MOL      0.389113
@<TRIPOS>BOND
     1    1    2 1   
     2    1    4 1   
     3    1    5 1   
     4    1    6 1   
     5    2    3 2   
     6    2    7 1   
     7    7    8 1   
     8    7   15 1   
     9    8    9 1   
    10    8   11 1   
    11    8   16 1   
    12    9   10 2   
    13    9   19 1   
    14   11   12 1   
    15   11   17 1   
    16   11   18 1   
    17   12   13 1   
    18   12   14 1   
    19   19   20 1   
    20   19   24 1   
    21   20   21 1   
    22   20   23 1   
    23   20   25 1   
    24   21   22 2   
    25   21   29 1   
    26   23   26 1   
    27   23   27 1   
    28   23   28 1   
    29   29   30 1   
    30   29   37 1   
    31   30   31 1   
    32   30   33 1   
    33   30   38 1   
    34   31   32 2   
    35   31   41 1   
    36   33   34 1   
    37   33   39 1   
    38   33   40 1   
    39   34   35 1   
    40   34   36 1   
    41   41   42 1   
    42   41   45 1   
    43   42   43 1   
    44   42   46 1   
    45   42   47 1   
    46   43   44 2   
    47   43   48 1   
    48   48   49 1   
    49   48   56 1   
    50   49   50 1   
    51   49   52 1   
    52   49   57 1   
    53   50   51 2   
    54   50   62 1   
    55   52   53 1   
    56   52   58 1   
    57   52   59 1   
    58   53   54 1   
    59   53   55 2   
    60   54   60 1   
    61   54   61 1   
    62   62   63 1   
    63   62   66 1   
    64   63   64 1   
    65   63   67 1   
    66   63   68 1   
    67   64   65 2   
    68   64   69 1   
    69   69   70 1   
    70   69   76 1   
    71   70   71 1   
    72   70   73 1   
    73   70   77 1   
    74   71   72 2   
    75   71   83 1   
    76   73   74 1   
    77   73   75 1   
    78   73   78 1   
    79   74   80 1   
    80   74   81 1   
    81   74   82 1   
    82   75   79 1   
    83   83   84 1   
    84   83   91 1   
    85   84   85 1   
    86   84   87 1   
    87   84   92 1   
    88   85   86 2   
    89   85  102 1   
    90   87   88 1   
    91   87   89 1   
    92   87   93 1   
    93   88   90 1   
    94   88   94 1   
    95   88   95 1   
    96   89   96 1   
    97   89   97 1   
    98   89   98 1   
    99   90   99 1   
   100   90  100 1   
   101   90  101 1   
   102  102  103 1   
   103  102  110 1   
   104  103  104 1   
   105  103  106 1   
   106  103  111 1   
   107  104  105 2   
   108  104  114 1   
   109  106  107 1   
   110  106  112 1   
   111  106  113 1   
   112  107  108 1   
   113  107  109 1   
   114  114  115 1   
   115  114  125 1   
   116  115  116 1   
   117  115  118 1   
   118  115  126 1   
   119  116  117 2   
   120  116  134 1   
   121  118  119 1   
   122  118  127 1   
   123  118  128 1   
   124  119  120 ar  
   125  119  121 ar  
   126  120  122 ar  
   127  120  129 1   
   128  121  123 ar  
   129  121  130 1   
   130  122  124 ar  
   131  122  131 1   
   132  123  124 ar  
   133  123  132 1   
   134  124  133 1   
   135  134  135 1   
   136  134  140 1   
   137  135  136 1   
   138  135  138 1   
   139  135  141 1   
   140  136  137 2   
   141  136  148 1   
   142  138  139 1   
   143  138  142 1   
   144  138  143 1   
   145  139  140 1   
   146  139  144 1   
   147  139  145 1   
   148  140  146 1   
   149  140  147 1   
   150  148  149 1   
   151  148  157 1   
   152  149  150 1   
   153  149  152 1   
   154  149  158 1   
   155  150  151 2   
   156  150  163 1   
   157  152  153 1   
   158  152  159 1   
   159  152  160 1   
   160  153  154 1   
   161  153  161 1   
   162  153  162 1   
   163  154  155 1   
   164  154  156 1   
   165  163  164 1   
   166  163  168 1   
   167  164  165 1   
   168  164  166 1   
   169  164  167 1   
   170  170  171 1   
   171  170  172 1   
   172  173  174 1   
   173  173  175 1   
   174  176  177 1   
   175  176  178 1   
   176  179  180 1   
   177  179  181 1   
@<TRIPOS>SUBSTRUCTURE
     1 MOL         1 TEMP              0 ****  ****    0 ROOT
