@<TRIPOS>MOLECULE
MOL
  182   178     1     0     0
SMALL
resp


@<TRIPOS>ATOM
      1 C1         -0.1650   -5.2210    5.7240 c3        1 MOL     -0.322982
      2 C2          0.0850   -4.7200    4.2210 c         1 MOL      0.739324
      3 O1         -0.6230   -5.1500    3.3440 o         1 MOL     -0.600406
      4 H1         -0.8320   -4.5250    6.2310 hc        1 MOL      0.083483
      5 H2         -0.6200   -6.2110    5.7060 hc        1 MOL      0.083483
      6 H3          0.7850   -5.2660    6.2550 hc        1 MOL      0.083483
      7 N1          1.1310   -3.9140    4.0100 n         1 MOL     -0.541206
      8 C3          1.5870   -3.4470    2.6600 c3        1 MOL     -0.183287
      9 C4          2.0400   -4.6060    1.7830 c         1 MOL      0.596655
     10 O2          3.1560   -5.0430    1.9720 o         1 MOL     -0.517879
     11 C5          2.7330   -2.4240    2.8610 c3        1 MOL     -0.024714
     12 C6          2.8870   -1.5430    1.5990 c         1 MOL      0.481943
     13 O3          3.3110   -0.3890    1.6760 o         1 MOL     -0.685161
     14 O4          2.7270   -1.9730    0.4740 o         1 MOL     -0.685161
     15 H4          1.7420   -3.7250    4.7950 hn        1 MOL      0.307269
     16 H5          0.6610   -3.0670    2.2220 h1        1 MOL      0.123694
     17 H6          3.7070   -2.8120    3.1260 hc        1 MOL      0.089124
     18 H7          2.4320   -1.7790    3.6860 hc        1 MOL      0.089124
     19 N2          1.3320   -4.8880    0.6820 n         1 MOL     -0.262860
     20 C7          1.6710   -5.8220   -0.3740 c3        1 MOL     -0.077299
     21 C8          3.1350   -5.6310   -0.8660 c         1 MOL      0.465258
     22 O5          3.8190   -6.6640   -1.0860 o         1 MOL     -0.547975
     23 C9          0.6950   -5.7440   -1.5700 c3        1 MOL     -0.085634
     24 C10         0.7070   -4.4670   -2.4610 c3        1 MOL      0.233349
     25 C11        -0.2070   -4.5410   -3.6560 c3        1 MOL     -0.198926
     26 C12         0.1380   -5.5990   -4.7310 c3        1 MOL      0.109587
     27 N3         -0.8470   -5.6500   -5.8070 n4        1 MOL     -0.350496
     28 H8          0.4400   -4.4290    0.6330 hn        1 MOL      0.220088
     29 H9          1.6520   -6.7980    0.1130 h1        1 MOL      0.113404
     30 H10        -0.3090   -5.9830   -1.2300 hc        1 MOL      0.031927
     31 H11         0.9040   -6.5310   -2.2920 hc        1 MOL      0.031927
     32 H12         1.7380   -4.4000   -2.8040 hc        1 MOL     -0.039237
     33 H13         0.3310   -3.6130   -1.9080 hc        1 MOL     -0.039237
     34 H14        -0.3960   -3.5860   -4.1430 hc        1 MOL      0.055526
     35 H15        -1.2270   -4.7060   -3.2870 hc        1 MOL      0.055526
     36 H16         0.2380   -6.5840   -4.2770 hx        1 MOL      0.067842
     37 H17         1.1060   -5.3860   -5.1970 hx        1 MOL      0.067842
     38 H18        -0.5130   -6.2470   -6.5470 hn        1 MOL      0.285647
     39 H19        -1.7170   -5.9260   -5.3760 hn        1 MOL      0.285647
     40 H20        -0.8930   -4.7480   -6.2760 hn        1 MOL      0.285647
     41 N4          3.6470   -4.3890   -0.9390 n         1 MOL     -0.153236
     42 C13         4.9980   -4.0530   -1.4230 c3        1 MOL      0.031919
     43 C14         5.9940   -3.4970   -0.4210 c         1 MOL      0.445584
     44 O6          7.1690   -3.6850   -0.6220 o         1 MOL     -0.541689
     45 C15         5.0890   -3.1230   -2.6710 c3        1 MOL     -0.276594
     46 C16         4.3700   -1.8840   -2.4860 c         1 MOL      0.819603
     47 O7          4.7330   -1.1980   -1.5140 o         1 MOL     -0.796015
     48 O8          3.3560   -1.5860   -3.1330 o         1 MOL     -0.796015
     49 H21         3.1150   -3.6220   -0.5420 hn        1 MOL      0.142173
     50 H22         5.4890   -4.9970   -1.6700 h1        1 MOL      0.101828
     51 H23         4.7600   -3.7460   -3.5070 hc        1 MOL      0.070340
     52 H24         6.1420   -2.9620   -2.8670 hc        1 MOL      0.070340
     53 N5          5.5370   -2.9670    0.7120 n         1 MOL      0.026509
     54 C17         6.3430   -2.5010    1.8210 c3        1 MOL     -0.134413
     55 C18         7.0650   -1.1270    1.6780 c         1 MOL      0.601645
     56 O9          7.8710   -0.7900    2.5030 o         1 MOL     -0.578831
     57 H25         4.5500   -3.0440    0.9330 hn        1 MOL      0.004796
     58 H26         7.0930   -3.2810    1.9430 h1        1 MOL      0.082608
     59 H27         5.7950   -2.5160    2.7640 h1        1 MOL      0.082608
     60 N6          6.7830   -0.4310    0.5950 n         1 MOL     -0.227225
     61 C19         7.4450    0.8030    0.1910 c3        1 MOL      0.202815
     62 C20         6.4240    1.8010   -0.2740 c         1 MOL      0.224905
     63 O10         5.3210    1.4530   -0.6170 o         1 MOL     -0.249378
     64 C21         8.5110    0.5340   -0.8680 c3        1 MOL     -0.369727
     65 C22         7.9940    0.4650   -2.2820 c         1 MOL      0.728270
     66 N7          7.2450   -0.5190   -2.6750 n         1 MOL     -0.788761
     67 O11         8.1370    1.3880   -3.0210 o         1 MOL     -0.609343
     68 H28         6.1490   -0.8710   -0.0570 hn        1 MOL     -0.046606
     69 H29         7.9430    1.2610    1.0440 h1        1 MOL      0.064902
     70 H30         8.9950   -0.4240   -0.6640 hc        1 MOL      0.106690
     71 H31         9.3200    1.2540   -0.7070 hc        1 MOL      0.106690
     72 H32         7.0930   -1.2470   -1.9820 hn        1 MOL      0.385666
     73 H33         6.7850   -0.3900   -3.5570 hn        1 MOL      0.385666
     74 N8          6.8140    3.0600   -0.3190 n         1 MOL     -0.245551
     75 C23         5.9060    4.1510   -0.6920 c3        1 MOL     -0.451504
     76 C24         4.8720    4.4400    0.4210 c         1 MOL      0.730728
     77 O12         5.0980    4.3680    1.6440 o         1 MOL     -0.535282
     78 H34         7.6990    3.2110    0.1560 hn        1 MOL      0.292974
     79 H35         5.4610    3.8340   -1.6280 h1        1 MOL      0.196763
     80 H36         6.5460    5.0300   -0.7720 h1        1 MOL      0.196763
     81 N9          3.6660    4.8100   -0.0250 n         1 MOL     -0.664213
     82 C25         2.4770    4.8540    0.7610 c3        1 MOL      0.379594
     83 C26         2.0330    3.3920    1.1130 c         1 MOL      0.497144
     84 O13         2.5270    2.4380    0.5700 o         1 MOL     -0.594515
     85 C27         1.3420    5.5540    0.0300 c3        1 MOL     -0.153581
     86 C28         1.5740    6.9830   -0.2000 ca        1 MOL      0.217809
     87 C29         2.0650    7.8630    0.6910 ca        1 MOL     -0.265604
     88 C30         1.4100    7.4850   -1.5170 ca        1 MOL     -0.265604
     89 C31         2.3400    9.2100    0.3540 ca        1 MOL     -0.156876
     90 C32         1.8360    8.7140   -2.0010 ca        1 MOL     -0.156876
     91 C33         2.3420    9.6040   -1.0410 ca        1 MOL      0.219610
     92 O14         2.8140   10.8200   -1.3680 oh        1 MOL     -0.430798
     93 H37         3.5650    5.0710   -1.0000 hn        1 MOL      0.278178
     94 H38         2.5880    5.3820    1.7150 h1        1 MOL      0.004780
     95 H39         0.3820    5.4380    0.5380 hc        1 MOL      0.022690
     96 H40         1.1710    5.0410   -0.9210 hc        1 MOL      0.022690
     97 H41         2.1930    7.6380    1.7430 ha        1 MOL      0.133622
     98 H42         1.0530    6.7930   -2.2690 ha        1 MOL      0.133622
     99 H43         2.8080    9.9220    1.0110 ha        1 MOL      0.138721
    100 H44         1.8820    8.9150   -3.0530 ha        1 MOL      0.138721
    101 H45         2.8730   10.8830   -2.3260 ho        1 MOL      0.354896
    102 N10         1.0270    3.1990    1.9730 n         1 MOL     -0.387719
    103 C34         0.2090    2.0070    2.4050 c3        1 MOL     -0.168730
    104 C35        -0.2180    1.0780    1.2350 c         1 MOL      0.513268
    105 O15         0.6360    0.6190    0.4930 o         1 MOL     -0.175591
    106 C36         0.9040    1.3040    3.5460 c3        1 MOL      0.011249
    107 C37         0.1610    0.0390    3.9960 c3        1 MOL      0.058186
    108 C38         1.1290    2.2120    4.7810 c3        1 MOL     -0.211968
    109 C39         0.5630   -0.6010    5.2730 c3        1 MOL     -0.420291
    110 H46         0.6890    4.0370    2.4180 hn        1 MOL      0.266786
    111 H47        -0.6550    2.4890    2.8630 h1        1 MOL      0.074358
    112 H48         1.8960    1.1090    3.1500 hc        1 MOL      0.121873
    113 H49         0.2840   -0.8140    3.3310 hc        1 MOL      0.035986
    114 H50        -0.9230    0.1420    3.9250 hc        1 MOL      0.035986
    115 H51         1.7360    1.7200    5.5440 hc        1 MOL      0.063303
    116 H52         1.6040    3.1310    4.4500 hc        1 MOL      0.063303
    117 H53         0.2430    2.4670    5.3670 hc        1 MOL      0.063303
    118 H54         1.6550   -0.6310    5.2930 hc        1 MOL      0.107752
    119 H55         0.3300    0.0440    6.1240 hc        1 MOL      0.107752
    120 H56         0.0910   -1.5830    5.3120 hc        1 MOL      0.107752
    121 N11        -1.4720    0.7170    1.1500 n         1 MOL     -0.473792
    122 C40        -1.9640   -0.0050   -0.0350 c3        1 MOL     -0.134800
    123 C41        -3.4770   -0.0030   -0.3160 c         1 MOL      0.668629
    124 O16        -3.9410   -0.3290   -1.3500 o         1 MOL     -0.540057
    125 C42        -1.4920   -1.4760   -0.0810 c3        1 MOL      0.179744
    126 O17        -1.9400   -2.1350    1.1220 oh        1 MOL     -0.597319
    127 H57        -2.1270    0.8310    1.9110 hn        1 MOL      0.313789
    128 H58        -1.5190    0.4950   -0.8930 h1        1 MOL      0.093070
    129 H59        -0.4260   -1.5030   -0.2730 h1        1 MOL      0.007889
    130 H60        -1.9110   -1.9940   -0.9370 h1        1 MOL      0.007889
    131 H61        -2.3110   -2.9910    0.8830 ho        1 MOL      0.420212
    132 N12        -4.3160    0.5080    0.6430 n         1 MOL     -0.543041
    133 C43        -5.7860    0.4790    0.5330 c3        1 MOL      0.081189
    134 C44        -6.3530    1.5640   -0.4020 c         1 MOL      0.764086
    135 O18        -5.8320    2.6250   -0.4770 o         1 MOL     -0.613041
    136 C45        -6.4700    0.6530    1.9140 c3        1 MOL     -0.363796
    137 H62        -3.8840    0.9720    1.4280 hn        1 MOL      0.290352
    138 H63        -6.0520   -0.4810    0.0750 h1        1 MOL      0.100218
    139 H64        -6.3680    1.7100    2.1530 hc        1 MOL      0.116749
    140 H65        -7.5370    0.4550    1.9570 hc        1 MOL      0.116749
    141 H66        -6.0200    0.0100    2.6590 hc        1 MOL      0.116749
    142 N13        -7.3970    1.3940   -1.1850 n         1 MOL     -0.699755
    143 C46        -8.2380    0.2410   -1.1910 c3        1 MOL      0.202916
    144 C47        -9.6660    0.5250   -1.7050 c         1 MOL      0.310737
    145 O19        -9.8820    1.1310   -2.7190 o         1 MOL     -0.499834
    146 C48        -7.4950   -0.7750   -2.0570 c3        1 MOL      0.108617
    147 H67        -7.7190    2.1810   -1.7220 hn        1 MOL      0.361697
    148 H68        -8.2660   -0.0830   -0.1450 h1        1 MOL     -0.056637
    149 H69        -7.9370   -1.7590   -1.8730 hc        1 MOL     -0.021109
    150 H70        -7.6570   -0.6010   -3.1160 hc        1 MOL     -0.021109
    151 H71        -6.4220   -0.9270   -1.8880 hc        1 MOL     -0.021109
    152 N14       -10.7310    0.1590   -1.0300 n         1 MOL      0.025918
    153 C49       -10.8140   -0.5730    0.2480 c3        1 MOL     -0.518093
    154 C50       -10.6670    0.3230    1.5150 c         1 MOL      0.639223
    155 O20       -10.5750   -0.1690    2.6220 o         1 MOL     -0.572022
    156 C51       -12.1140   -1.3830    0.3260 c3        1 MOL      0.149135
    157 C52       -13.4030   -0.6340   -0.0550 c3        1 MOL     -0.263271
    158 C53       -13.7320   -0.4750   -1.5780 c         1 MOL      0.642463
    159 O21       -13.5290    0.6150   -2.1400 o         1 MOL     -0.621631
    160 O22       -13.9320   -1.5670   -2.2140 o         1 MOL     -0.621631
    161 H72       -11.5490    0.4050   -1.5750 hn        1 MOL      0.194907
    162 H73        -9.9580   -1.2370    0.3930 h1        1 MOL      0.149168
    163 H74       -12.2180   -1.9210    1.2640 hc        1 MOL      0.031536
    164 H75       -12.1120   -2.1980   -0.4040 hc        1 MOL      0.031536
    165 H76       -13.2400    0.3720    0.3360 hc        1 MOL      0.045288
    166 H77       -14.1880   -1.1270    0.5170 hc        1 MOL      0.045288
    167 N15       -10.6570    1.6240    1.3510 n         1 MOL     -0.253106
    168 C54       -10.4410    2.6720    2.4410 c3        1 MOL     -0.262937
    169 H78       -11.1330    2.4880    3.2630 h1        1 MOL      0.117664
    170 H79        -9.4170    2.6110    2.8070 h1        1 MOL      0.117664
    171 H80       -10.6220    3.6660    2.0300 h1        1 MOL      0.117664
    172 H81       -11.0310    1.9410    0.4730 hn        1 MOL      0.221085
    173 Ca1         2.8340    0.3210   -0.9840 Ca        1 MOL      1.764329
    174 O23         3.5300    2.0480   -2.9010 oh        1 MOL     -0.867484
    175 H82         2.9450    2.2590   -3.6280 ho        1 MOL      0.416479
    176 H83         4.4100    2.1350   -3.2640 ho        1 MOL      0.416479
    177 O24         1.0370   -0.6640   -2.4390 oh        1 MOL     -0.867484
    178 H84         1.4640   -1.1350   -3.1540 ho        1 MOL      0.416479
    179 H85         0.1610   -0.4550   -2.7770 ho        1 MOL      0.416479
    180 O25         0.6560    2.3830   -2.1020 oh        1 MOL     -0.867484
    181 H86        -0.2330    2.7220   -1.9960 ho        1 MOL      0.416479
    182 H87         0.8700    2.5550   -3.0240 ho        1 MOL      0.416479
@<TRIPOS>BOND
     1    1    2 1   
     2    1    4 1   
     3    1    5 1   
     4    1    6 1   
     5    2    3 2   
     6    2    7 1   
     7    7    8 1   
     8    7   15 1   
     9    8    9 1   
    10    8   11 1   
    11    8   16 1   
    12    9   10 2   
    13    9   19 1   
    14   11   12 1   
    15   11   17 1   
    16   11   18 1   
    17   12   13 1   
    18   12   14 1   
    19   19   20 1   
    20   19   28 1   
    21   20   21 1   
    22   20   23 1   
    23   20   29 1   
    24   21   22 2   
    25   21   41 1   
    26   23   24 1   
    27   23   30 1   
    28   23   31 1   
    29   24   25 1   
    30   24   32 1   
    31   24   33 1   
    32   25   26 1   
    33   25   34 1   
    34   25   35 1   
    35   26   27 1   
    36   26   36 1   
    37   26   37 1   
    38   27   38 1   
    39   27   39 1   
    40   27   40 1   
    41   41   42 1   
    42   41   49 1   
    43   42   43 1   
    44   42   45 1   
    45   42   50 1   
    46   43   44 2   
    47   43   53 1   
    48   45   46 1   
    49   45   51 1   
    50   45   52 1   
    51   46   47 1   
    52   46   48 1   
    53   53   54 1   
    54   53   57 1   
    55   54   55 1   
    56   54   58 1   
    57   54   59 1   
    58   55   56 2   
    59   55   60 1   
    60   60   61 1   
    61   60   68 1   
    62   61   62 1   
    63   61   64 1   
    64   61   69 1   
    65   62   63 2   
    66   62   74 1   
    67   64   65 1   
    68   64   70 1   
    69   64   71 1   
    70   65   66 1   
    71   65   67 2   
    72   66   72 1   
    73   66   73 1   
    74   74   75 1   
    75   74   78 1   
    76   75   76 1   
    77   75   79 1   
    78   75   80 1   
    79   76   77 2   
    80   76   81 1   
    81   81   82 1   
    82   81   93 1   
    83   82   83 1   
    84   82   85 1   
    85   82   94 1   
    86   83   84 2   
    87   83  102 1   
    88   85   86 1   
    89   85   95 1   
    90   85   96 1   
    91   86   87 ar  
    92   86   88 ar  
    93   87   89 ar  
    94   87   97 1   
    95   88   90 ar  
    96   88   98 1   
    97   89   91 ar  
    98   89   99 1   
    99   90   91 ar  
   100   90  100 1   
   101   91   92 1   
   102   92  101 1   
   103  102  103 1   
   104  102  110 1   
   105  103  104 1   
   106  103  106 1   
   107  103  111 1   
   108  104  105 2   
   109  104  121 1   
   110  106  107 1   
   111  106  108 1   
   112  106  112 1   
   113  107  109 1   
   114  107  113 1   
   115  107  114 1   
   116  108  115 1   
   117  108  116 1   
   118  108  117 1   
   119  109  118 1   
   120  109  119 1   
   121  109  120 1   
   122  121  122 1   
   123  121  127 1   
   124  122  123 1   
   125  122  125 1   
   126  122  128 1   
   127  123  124 2   
   128  123  132 1   
   129  125  126 1   
   130  125  129 1   
   131  125  130 1   
   132  126  131 1   
   133  132  133 1   
   134  132  137 1   
   135  133  134 1   
   136  133  136 1   
   137  133  138 1   
   138  134  135 2   
   139  134  142 1   
   140  136  139 1   
   141  136  140 1   
   142  136  141 1   
   143  142  143 1   
   144  142  147 1   
   145  143  144 1   
   146  143  146 1   
   147  143  148 1   
   148  144  145 2   
   149  144  152 1   
   150  146  149 1   
   151  146  150 1   
   152  146  151 1   
   153  152  153 1   
   154  152  161 1   
   155  153  154 1   
   156  153  156 1   
   157  153  162 1   
   158  154  155 2   
   159  154  167 1   
   160  156  157 1   
   161  156  163 1   
   162  156  164 1   
   163  157  158 1   
   164  157  165 1   
   165  157  166 1   
   166  158  159 1   
   167  158  160 1   
   168  167  168 1   
   169  167  172 1   
   170  168  169 1   
   171  168  170 1   
   172  168  171 1   
   173  174  175 1   
   174  174  176 1   
   175  177  178 1   
   176  177  179 1   
   177  180  181 1   
   178  180  182 1   
@<TRIPOS>SUBSTRUCTURE
     1 MOL         1 TEMP              0 ****  ****    0 ROOT
