@<TRIPOS>MOLECULE
MOL
  188   182     1     0     0
SMALL
resp


@<TRIPOS>ATOM
      1 C1         -6.6710   -1.4400    2.5410 c3        1 MOL     -0.484196
      2 C2         -7.0560   -1.5860    1.0580 c         1 MOL      0.475735
      3 O1         -6.1360   -1.3090    0.2640 o         1 MOL     -0.359366
      4 H1         -7.5600   -1.1970    3.1240 hc        1 MOL      0.134769
      5 H2         -6.2450   -2.3760    2.9000 hc        1 MOL      0.134769
      6 H3         -5.9380   -0.6410    2.6490 hc        1 MOL      0.134769
      7 N1         -8.2480   -1.9610    0.5560 n         1 MOL     -0.379856
      8 C3         -8.6920   -1.9980   -0.8470 c3        1 MOL     -0.199934
      9 C4         -8.6120   -0.5730   -1.4900 c         1 MOL      0.626681
     10 O2         -8.2830   -0.3910   -2.6430 o         1 MOL     -0.524500
     11 C5         -7.9890   -3.1820   -1.6880 c3        1 MOL     -0.024318
     12 C6         -7.9330   -4.5310   -1.0160 c         1 MOL      0.676502
     13 O3         -7.2310   -5.4460   -1.5570 o         1 MOL     -0.662831
     14 O4         -8.8010   -4.7750   -0.1110 o         1 MOL     -0.662831
     15 H4         -8.9650   -2.3040    1.1810 hn        1 MOL      0.297842
     16 H5         -9.7620   -2.1860   -0.7840 h1        1 MOL      0.114528
     17 H6         -6.9560   -2.8720   -1.8090 hc        1 MOL      0.031361
     18 H7         -8.3930   -3.2230   -2.7020 hc        1 MOL      0.031361
     19 N2         -8.9170    0.4550   -0.7150 n         1 MOL     -0.444251
     20 C7         -8.6930    1.9910   -0.8640 c3        1 MOL      0.022617
     21 C8         -7.2790    2.4440   -0.5180 c         1 MOL      0.561889
     22 O5         -7.0490    3.6400   -0.4620 o         1 MOL     -0.567721
     23 C9         -9.7780    2.8060   -0.0690 c3        1 MOL     -0.202695
     24 C10        -9.5610    2.3990    1.3740 c3        1 MOL      0.319286
     25 C11       -10.3810    3.2490    2.3880 c3        1 MOL     -0.297217
     26 C12        -9.9360    2.8730    3.8360 c3        1 MOL      0.207748
     27 N3        -10.5000    3.7970    4.8170 n4        1 MOL     -0.213355
     28 H8         -9.2340    0.2360    0.2200 hn        1 MOL      0.178724
     29 H9         -8.8710    2.2480   -1.9140 h1        1 MOL      0.119595
     30 H10       -10.7620    2.4720   -0.3810 hc        1 MOL      0.075289
     31 H11        -9.5970    3.8770   -0.1340 hc        1 MOL      0.075289
     32 H12        -8.4980    2.4150    1.6240 hc        1 MOL     -0.042923
     33 H13        -9.9160    1.3930    1.5490 hc        1 MOL     -0.042923
     34 H14       -11.4100    2.9210    2.2440 hc        1 MOL      0.085561
     35 H15       -10.1440    4.2810    2.1380 hc        1 MOL      0.085561
     36 H16        -8.8510    2.7890    3.9580 hx        1 MOL      0.021191
     37 H17       -10.3230    1.8970    4.1130 hx        1 MOL      0.021191
     38 H18       -11.5040    3.8640    4.8260 hn        1 MOL      0.210673
     39 H19       -10.3330    3.5400    5.7730 hn        1 MOL      0.210673
     40 H20       -10.1590    4.7230    4.5650 hn        1 MOL      0.210673
     41 N4         -6.3540    1.5110   -0.2300 n         1 MOL     -0.399552
     42 C13        -4.9090    1.9850   -0.2080 c3        1 MOL      0.107402
     43 C14        -4.4680    2.2770   -1.6970 c         1 MOL      0.476906
     44 O6         -4.8560    1.5110   -2.6210 o         1 MOL     -0.457502
     45 C15        -3.9940    1.0200    0.5960 c3        1 MOL     -0.086911
     46 C16        -2.4950    1.4540    0.7090 c         1 MOL      0.676046
     47 O7         -1.8400    1.6540    1.7730 o         1 MOL     -0.771034
     48 O8         -1.9690    1.5950   -0.4220 o         1 MOL     -0.771034
     49 H21        -6.5370    0.5180   -0.3070 hn        1 MOL      0.187947
     50 H22        -4.9870    2.9950    0.1860 h1        1 MOL     -0.003483
     51 H23        -4.0240    0.0630    0.0700 hc        1 MOL      0.025740
     52 H24        -4.4460    1.0260    1.5920 hc        1 MOL      0.025740
     53 N5         -3.7240    3.3470   -1.8880 n         1 MOL     -0.288323
     54 C17        -3.1770    3.8390   -3.1540 c3        1 MOL     -0.160327
     55 C18        -2.3850    2.7540   -3.8980 c         1 MOL      0.527034
     56 O9         -2.2900    2.8010   -5.1090 o         1 MOL     -0.522161
     57 H25        -3.6110    3.9560   -1.0900 hn        1 MOL      0.246668
     58 H26        -2.4600    4.6390   -2.9780 h1        1 MOL      0.110957
     59 H27        -3.9370    4.2880   -3.8010 h1        1 MOL      0.110957
     60 N6         -1.6850    1.8310   -3.1560 n         1 MOL     -0.486119
     61 C19        -1.0700    0.6270   -3.8140 c3        1 MOL      0.103153
     62 C20        -1.5320   -0.6400   -3.0790 c         1 MOL      0.401898
     63 O10        -0.7700   -1.6220   -3.0690 o         1 MOL     -0.496639
     64 C21         0.3810    0.6700   -4.2040 c3        1 MOL     -0.433107
     65 C22         1.3690    0.7600   -3.0390 c         1 MOL      0.692273
     66 N7          2.6840    0.6620   -3.2540 n         1 MOL     -0.789528
     67 O11         1.0300    0.9910   -1.8990 o         1 MOL     -0.572365
     68 H28        -1.7270    1.8950   -2.1460 hn        1 MOL      0.374206
     69 H29        -1.6210    0.4000   -4.7260 h1        1 MOL      0.122251
     70 H30         0.4520    1.5740   -4.8190 hc        1 MOL      0.162513
     71 H31         0.6350   -0.1830   -4.8380 hc        1 MOL      0.162513
     72 H32         2.9450    0.5300   -4.2220 hn        1 MOL      0.357971
     73 H33         3.3390    0.4340   -2.5250 hn        1 MOL      0.357971
     74 N8         -2.7410   -0.6730   -2.5220 n         1 MOL     -0.160594
     75 C23        -3.4570   -1.8410   -2.1030 c3        1 MOL     -0.232945
     76 C24        -2.7680   -2.6030   -0.9070 c         1 MOL      0.450957
     77 O12        -3.0580   -3.7190   -0.4800 o         1 MOL     -0.472862
     78 H34        -3.3270    0.1210   -2.7380 hn        1 MOL      0.179551
     79 H35        -3.5670   -2.5720   -2.9090 h1        1 MOL      0.142092
     80 H36        -4.4390   -1.4650   -1.7850 h1        1 MOL      0.142092
     81 N9         -1.7810   -1.8840   -0.2820 n         1 MOL     -0.192671
     82 C25        -1.0310   -2.3500    0.8620 c3        1 MOL      0.013242
     83 C26         0.3510   -1.7390    1.0070 c         1 MOL      0.246282
     84 O13         0.5300   -0.5240    0.6870 o         1 MOL     -0.484120
     85 C27        -1.8590   -2.1370    2.0980 c3        1 MOL     -0.136722
     86 C28        -1.0770   -2.2870    3.3790 ca        1 MOL      0.186738
     87 C29        -0.8430   -3.5880    3.8640 ca        1 MOL     -0.280675
     88 C30        -0.6280   -1.2030    4.0910 ca        1 MOL     -0.280675
     89 C31        -0.1680   -3.8450    5.0580 ca        1 MOL     -0.153544
     90 C32         0.1490   -1.4020    5.2460 ca        1 MOL     -0.153544
     91 C33         0.3520   -2.6820    5.7140 ca        1 MOL      0.224067
     92 O14         1.0100   -2.8850    6.9000 oh        1 MOL     -0.410521
     93 H37        -1.6150   -0.9060   -0.5220 hn        1 MOL      0.176758
     94 H38        -0.8610   -3.4120    0.6880 h1        1 MOL      0.058966
     95 H39        -2.7030   -2.8240    2.0870 hc        1 MOL      0.094855
     96 H40        -2.2870   -1.1390    2.0470 hc        1 MOL      0.094855
     97 H41        -1.3160   -4.4180    3.3740 ha        1 MOL      0.173136
     98 H42        -0.7760   -0.1900    3.7690 ha        1 MOL      0.173136
     99 H43         0.0420   -4.8710    5.3100 ha        1 MOL      0.129821
    100 H44         0.4690   -0.6070    5.9120 ha        1 MOL      0.129821
    101 H45         1.1620   -1.9890    7.2340 ho        1 MOL      0.311351
    102 N10         1.3440   -2.5350    1.3460 n         1 MOL     -0.167221
    103 C34         2.8020   -2.1390    1.4100 c3        1 MOL     -0.320044
    104 C35         3.2760   -1.9260    0.0020 c         1 MOL      0.427425
    105 O15         4.0460   -0.9980   -0.3180 o         1 MOL     -0.445775
    106 C36         3.6840   -3.0000    2.3600 c3        1 MOL     -0.012317
    107 C37         3.1540   -2.9090    3.7400 c3        1 MOL      0.480977
    108 C38         5.1560   -2.4860    2.1520 c3        1 MOL     -0.315404
    109 C39         3.9270   -3.5940    4.8610 c3        1 MOL     -0.162525
    110 H46         0.9760   -3.4340    1.6460 hn        1 MOL      0.258006
    111 H47         2.8700   -1.1090    1.7830 h1        1 MOL      0.122032
    112 H48         3.6500   -4.0560    2.0990 hc        1 MOL      0.018875
    113 H49         2.1860   -3.4100    3.7430 hc        1 MOL     -0.106938
    114 H50         3.0290   -1.9110    4.1740 hc        1 MOL     -0.106938
    115 H51         5.8080   -3.0380    2.8240 hc        1 MOL      0.090645
    116 H52         5.5590   -2.5810    1.1310 hc        1 MOL      0.090645
    117 H53         5.2340   -1.4260    2.3870 hc        1 MOL      0.090645
    118 H54         3.4820   -3.4990    5.8490 hc        1 MOL      0.026794
    119 H55         3.9200   -4.6710    4.6860 hc        1 MOL      0.026794
    120 H56         4.9630   -3.2570    4.8190 hc        1 MOL      0.026794
    121 N11         2.8180   -2.7930   -0.8770 n         1 MOL     -0.116772
    122 C40         3.0700   -2.8110   -2.3270 c3        1 MOL     -0.168922
    123 C41         4.5110   -2.7600   -2.7350 c         1 MOL      0.351549
    124 O16         4.7530   -2.2230   -3.8680 o         1 MOL     -0.486084
    125 C42         2.4350   -4.0070   -2.8920 c3        1 MOL      0.277535
    126 O17         1.0410   -3.8760   -2.6200 oh        1 MOL     -0.597860
    127 H57         2.1830   -3.4940   -0.5230 hn        1 MOL      0.221840
    128 H58         2.5280   -2.0050   -2.8130 h1        1 MOL      0.128797
    129 H59         2.8390   -4.8750   -2.3740 h1        1 MOL      0.027079
    130 H60         2.6970   -4.1360   -3.9410 h1        1 MOL      0.027079
    131 H61         0.6410   -3.0880   -2.9830 ho        1 MOL      0.373652
    132 N12         5.4310   -3.3850   -2.0650 n         1 MOL     -0.333403
    133 C43         6.8330   -3.2400   -2.3340 c3        1 MOL      0.414928
    134 C44         7.4380   -1.8320   -2.5110 c         1 MOL      0.327362
    135 O18         8.3440   -1.6220   -3.3210 o         1 MOL     -0.480819
    136 C45         7.1180   -4.1670   -3.4500 c3        1 MOL     -0.413014
    137 H62         5.2670   -4.0220   -1.2970 hn        1 MOL      0.255396
    138 H63         7.3670   -3.7070   -1.5050 h1        1 MOL     -0.012750
    139 H64         6.9670   -3.5880   -4.3680 hc        1 MOL      0.105361
    140 H65         8.1890   -4.3400   -3.4590 hc        1 MOL      0.105361
    141 H66         6.5560   -5.0900   -3.3330 hc        1 MOL      0.105361
    142 N13         6.8970   -0.8590   -1.7420 n         1 MOL     -0.342862
    143 C46         7.3150    0.5500   -1.7130 c3        1 MOL      0.342807
    144 C47         7.9570    0.9030   -0.3500 c         1 MOL      0.396906
    145 O19         7.6980    0.2460    0.6330 o         1 MOL     -0.481847
    146 C48         6.1740    1.4540   -2.1860 c3        1 MOL     -0.092785
    147 H67         6.1200   -1.1660   -1.1840 hn        1 MOL      0.102620
    148 H68         8.0900    0.6070   -2.4780 h1        1 MOL     -0.014069
    149 H69         6.4230    2.4650   -1.8860 hc        1 MOL      0.019240
    150 H70         6.0430    1.4580   -3.2710 hc        1 MOL      0.019240
    151 H71         5.2800    1.0720   -1.6990 hc        1 MOL      0.019240
    152 N14         8.9350    1.7580   -0.3670 n         1 MOL     -0.377929
    153 C49         9.6640    2.2300    0.8090 c3        1 MOL      0.040300
    154 C50        10.0570    1.1760    1.8160 c         1 MOL      0.409978
    155 O20         9.9440    1.3500    3.0050 o         1 MOL     -0.491795
    156 C51         8.9940    3.4600    1.4870 c3        1 MOL      0.415279
    157 C52         8.7360    4.5560    0.5030 c3        1 MOL     -0.189314
    158 C53         8.0010    5.7700    1.1730 c         1 MOL      0.683808
    159 O21         8.3260    6.8840    0.7210 o         1 MOL     -0.675345
    160 O22         7.1520    5.6190    2.0820 o         1 MOL     -0.675345
    161 H72         9.1380    2.1500   -1.2780 hn        1 MOL      0.231419
    162 H73        10.6170    2.7090    0.5610 h1        1 MOL      0.020386
    163 H74         9.5760    3.8040    2.3370 hc        1 MOL     -0.101876
    164 H75         8.0180    3.2120    1.9220 hc        1 MOL     -0.101876
    165 H76         7.9990    4.1900   -0.2130 hc        1 MOL     -0.009746
    166 H77         9.6450    4.9380    0.0420 hc        1 MOL     -0.009746
    167 N15        10.5640    0.0420    1.3030 n         1 MOL     -0.263013
    168 C54        10.8000   -1.2310    2.0600 c3        1 MOL     -0.245098
    169 H78         9.9020   -1.4910    2.6210 h1        1 MOL      0.114908
    170 H79        11.0350   -2.0320    1.3600 h1        1 MOL      0.114908
    171 H80        11.6310   -1.0940    2.7510 h1        1 MOL      0.114908
    172 H81        10.7190    0.1150    0.3100 hn        1 MOL      0.207141
    173 Ca1         0.4590    2.1690    0.3940 Ca        1 MOL      1.774604
    174 O23         1.9110    4.3390    1.0730 oh        1 MOL     -0.848180
    175 H82         2.5740    4.2770    1.7550 ho        1 MOL      0.423544
    176 H83         1.7060    5.2750    1.0270 ho        1 MOL      0.423544
    177 O24         0.4740    4.0970   -1.6110 oh        1 MOL     -0.848180
    178 H84         0.1250    4.9570   -1.8480 ho        1 MOL      0.423544
    179 H85         1.3260    4.0620   -2.0270 ho        1 MOL      0.423544
    180 O25        -1.0410    4.5310    1.0180 oh        1 MOL     -0.848180
    181 H86        -1.9730    4.6900    0.8610 ho        1 MOL      0.423544
    182 H87        -0.7990    5.1930    1.6730 ho        1 MOL      0.423544
    183 O26         0.9640    1.6740    2.9670 oh        1 MOL     -0.848180
    184 H88         0.3520    1.4360    3.6570 ho        1 MOL      0.423544
    185 H89         1.7620    1.9310    3.4330 ho        1 MOL      0.423544
    186 O27         3.0480    1.4940    0.5680 oh        1 MOL     -0.848180
    187 H90         3.2260    0.6120    0.2370 ho        1 MOL      0.423544
    188 H91         3.7770    1.6810    1.1650 ho        1 MOL      0.423544
@<TRIPOS>BOND
     1    1    2 1   
     2    1    4 1   
     3    1    5 1   
     4    1    6 1   
     5    2    3 2   
     6    2    7 1   
     7    7    8 1   
     8    7   15 1   
     9    8    9 1   
    10    8   11 1   
    11    8   16 1   
    12    9   10 2   
    13    9   19 1   
    14   11   12 1   
    15   11   17 1   
    16   11   18 1   
    17   12   13 1   
    18   12   14 1   
    19   19   20 1   
    20   19   28 1   
    21   20   21 1   
    22   20   23 1   
    23   20   29 1   
    24   21   22 2   
    25   21   41 1   
    26   23   24 1   
    27   23   30 1   
    28   23   31 1   
    29   24   25 1   
    30   24   32 1   
    31   24   33 1   
    32   25   26 1   
    33   25   34 1   
    34   25   35 1   
    35   26   27 1   
    36   26   36 1   
    37   26   37 1   
    38   27   38 1   
    39   27   39 1   
    40   27   40 1   
    41   41   42 1   
    42   41   49 1   
    43   42   43 1   
    44   42   45 1   
    45   42   50 1   
    46   43   44 2   
    47   43   53 1   
    48   45   46 1   
    49   45   51 1   
    50   45   52 1   
    51   46   47 1   
    52   46   48 1   
    53   53   54 1   
    54   53   57 1   
    55   54   55 1   
    56   54   58 1   
    57   54   59 1   
    58   55   56 2   
    59   55   60 1   
    60   60   61 1   
    61   60   68 1   
    62   61   62 1   
    63   61   64 1   
    64   61   69 1   
    65   62   63 2   
    66   62   74 1   
    67   64   65 1   
    68   64   70 1   
    69   64   71 1   
    70   65   66 1   
    71   65   67 2   
    72   66   72 1   
    73   66   73 1   
    74   74   75 1   
    75   74   78 1   
    76   75   76 1   
    77   75   79 1   
    78   75   80 1   
    79   76   77 2   
    80   76   81 1   
    81   81   82 1   
    82   81   93 1   
    83   82   83 1   
    84   82   85 1   
    85   82   94 1   
    86   83   84 2   
    87   83  102 1   
    88   85   86 1   
    89   85   95 1   
    90   85   96 1   
    91   86   87 ar  
    92   86   88 ar  
    93   87   89 ar  
    94   87   97 1   
    95   88   90 ar  
    96   88   98 1   
    97   89   91 ar  
    98   89   99 1   
    99   90   91 ar  
   100   90  100 1   
   101   91   92 1   
   102   92  101 1   
   103  102  103 1   
   104  102  110 1   
   105  103  104 1   
   106  103  106 1   
   107  103  111 1   
   108  104  105 2   
   109  104  121 1   
   110  106  107 1   
   111  106  108 1   
   112  106  112 1   
   113  107  109 1   
   114  107  113 1   
   115  107  114 1   
   116  108  115 1   
   117  108  116 1   
   118  108  117 1   
   119  109  118 1   
   120  109  119 1   
   121  109  120 1   
   122  121  122 1   
   123  121  127 1   
   124  122  123 1   
   125  122  125 1   
   126  122  128 1   
   127  123  124 2   
   128  123  132 1   
   129  125  126 1   
   130  125  129 1   
   131  125  130 1   
   132  126  131 1   
   133  132  133 1   
   134  132  137 1   
   135  133  134 1   
   136  133  136 1   
   137  133  138 1   
   138  134  135 2   
   139  134  142 1   
   140  136  139 1   
   141  136  140 1   
   142  136  141 1   
   143  142  143 1   
   144  142  147 1   
   145  143  144 1   
   146  143  146 1   
   147  143  148 1   
   148  144  145 2   
   149  144  152 1   
   150  146  149 1   
   151  146  150 1   
   152  146  151 1   
   153  152  153 1   
   154  152  161 1   
   155  153  154 1   
   156  153  156 1   
   157  153  162 1   
   158  154  155 2   
   159  154  167 1   
   160  156  157 1   
   161  156  163 1   
   162  156  164 1   
   163  157  158 1   
   164  157  165 1   
   165  157  166 1   
   166  158  159 1   
   167  158  160 1   
   168  167  168 1   
   169  167  172 1   
   170  168  169 1   
   171  168  170 1   
   172  168  171 1   
   173  174  175 1   
   174  174  176 1   
   175  177  178 1   
   176  177  179 1   
   177  180  181 1   
   178  180  182 1   
   179  183  184 1   
   180  183  185 1   
   181  186  187 1   
   182  186  188 1   
@<TRIPOS>SUBSTRUCTURE
     1 MOL         1 TEMP              0 ****  ****    0 ROOT
