@<TRIPOS>MOLECULE
MOL
  195   189     1     0     0
SMALL
resp


@<TRIPOS>ATOM
      1 C1          1.8260   -7.3770   -0.5120 c3        1 MOL     -0.330180
      2 C2          1.9330   -5.8420   -0.1860 c         1 MOL      0.645930
      3 O1          1.7640   -5.5180    0.9750 o         1 MOL     -0.567871
      4 H1          0.8280   -7.5990   -0.8910 hc        1 MOL      0.083226
      5 H2          2.5670   -7.6420   -1.2660 hc        1 MOL      0.083226
      6 H3          2.0050   -7.9550    0.3950 hc        1 MOL      0.083226
      7 N1          2.0850   -4.9530   -1.1590 n         1 MOL     -0.365826
      8 C3          2.0690   -3.4760   -1.0250 c3        1 MOL     -0.310953
      9 C4          0.6880   -2.7950   -1.0520 c         1 MOL      0.625804
     10 O2          0.5550   -1.5220   -1.0050 o         1 MOL     -0.571676
     11 C5          3.0740   -2.9130   -1.9530 c3        1 MOL     -0.022852
     12 C6          3.1080   -3.2460   -3.4750 c         1 MOL      0.698332
     13 O3          2.7380   -4.4220   -3.8910 o         1 MOL     -0.718838
     14 O4          3.5470   -2.3500   -4.2410 o         1 MOL     -0.718838
     15 H4          2.2970   -5.2870   -2.0940 hn        1 MOL      0.233211
     16 H5          2.4120   -3.2900   -0.0100 h1        1 MOL      0.110891
     17 H6          4.0410   -3.2220   -1.5500 hc        1 MOL      0.029126
     18 H7          3.0280   -1.8320   -1.7870 hc        1 MOL      0.029126
     19 N2         -0.3500   -3.5970   -1.0820 n         1 MOL     -0.243802
     20 C7         -1.7530   -3.1260   -1.1560 c3        1 MOL     -0.045613
     21 C8         -2.3760   -3.4060    0.2030 c         1 MOL      0.437990
     22 O5         -2.3050   -4.5420    0.6620 o         1 MOL     -0.546347
     23 C9         -2.5320   -3.8570   -2.2900 c3        1 MOL     -0.060653
     24 C10        -2.1100   -3.2060   -3.5180 c3        1 MOL     -0.119164
     25 C11        -0.7390   -3.5610   -4.1170 c3        1 MOL      0.116588
     26 C12        -0.8870   -3.4260   -5.6220 c3        1 MOL      0.157132
     27 N3          0.3030   -3.7420   -6.4030 n4        1 MOL     -0.270539
     28 H8         -0.1030   -4.5770   -1.2060 hn        1 MOL      0.221361
     29 H9         -1.7380   -2.0360   -1.2340 h1        1 MOL      0.153570
     30 H10        -3.5960   -3.7400   -2.0820 hc        1 MOL      0.071568
     31 H11        -2.3820   -4.9350   -2.4030 hc        1 MOL      0.071568
     32 H12        -2.0560   -2.1240   -3.4310 hc        1 MOL      0.035353
     33 H13        -2.8450   -3.5880   -4.2210 hc        1 MOL      0.035353
     34 H14        -0.4420   -4.5710   -3.8330 hc        1 MOL     -0.033778
     35 H15         0.0790   -2.9120   -3.7910 hc        1 MOL     -0.033778
     36 H16        -1.3120   -2.4320   -5.7710 hx        1 MOL      0.012787
     37 H17        -1.6890   -4.0610   -5.9960 hx        1 MOL      0.012787
     38 H18         0.3680   -3.6700   -7.4100 hn        1 MOL      0.290152
     39 H19         1.1030   -3.2580   -6.0190 hn        1 MOL      0.290152
     40 H20         0.4740   -4.7170   -6.1720 hn        1 MOL      0.290152
     41 N4         -2.9660   -2.4400    0.8790 n         1 MOL     -0.376660
     42 C13        -3.2080   -1.0210    0.5270 c3        1 MOL      0.122531
     43 C14        -3.9030   -0.9080   -0.8750 c         1 MOL      0.604669
     44 O6         -3.3980   -0.1860   -1.6840 o         1 MOL     -0.588472
     45 C15        -1.9900   -0.1230    0.8390 c3        1 MOL     -0.083034
     46 C16        -1.3340   -0.3410    2.2800 c         1 MOL      0.594511
     47 O7         -0.2510    0.1980    2.5610 o         1 MOL     -0.667934
     48 O8         -2.0200   -0.8530    3.2210 o         1 MOL     -0.667934
     49 H21        -3.2210   -2.6130    1.8450 hn        1 MOL      0.264754
     50 H22        -4.0090   -0.6910    1.1760 h1        1 MOL      0.007125
     51 H23        -2.2170    0.9340    0.6980 hc        1 MOL      0.054724
     52 H24        -1.1960   -0.4110    0.1410 hc        1 MOL      0.054724
     53 N5         -5.0850   -1.4850   -1.1510 n         1 MOL     -0.495553
     54 C17        -5.8920   -2.3620   -0.2790 c3        1 MOL      0.027429
     55 C18        -7.3350   -2.4260   -0.8880 c         1 MOL      0.383419
     56 O9         -7.3560   -2.5610   -2.0710 o         1 MOL     -0.520665
     57 H25        -5.2500   -1.4690   -2.1510 hn        1 MOL      0.314849
     58 H26        -5.9450   -1.9930    0.7480 h1        1 MOL      0.047752
     59 H27        -5.4360   -3.3370   -0.0640 h1        1 MOL      0.047752
     60 N6         -8.3850   -2.1050   -0.1800 n         1 MOL     -0.117838
     61 C19        -8.3600   -1.6300    1.2070 c3        1 MOL     -0.337666
     62 C20        -8.1360   -0.1380    1.3530 c         1 MOL      0.689962
     63 O10        -7.7500    0.2870    2.4690 o         1 MOL     -0.577670
     64 C21        -9.7770   -1.9030    1.8310 c3        1 MOL     -0.129818
     65 C22       -10.9840   -1.3480    1.0600 c         1 MOL      0.636958
     66 O11       -11.6140   -0.4740    1.6950 o         1 MOL     -0.629092
     67 O12       -11.2420   -1.8020   -0.0930 o         1 MOL     -0.629092
     68 H28        -9.2550   -2.0050   -0.6860 hn        1 MOL      0.190169
     69 H29        -7.5800   -2.0930    1.8000 h1        1 MOL      0.149077
     70 H30        -9.8610   -1.4840    2.8370 hc        1 MOL      0.053436
     71 H31        -9.8800   -2.9830    1.8080 hc        1 MOL      0.053436
     72 N7         -8.2350    0.6500    0.2610 n         1 MOL     -0.433031
     73 C23        -7.7460    2.0840    0.1840 c3        1 MOL     -0.017971
     74 C24        -6.6990    2.2970   -0.9040 c         1 MOL      0.539040
     75 O13        -6.5800    1.5570   -1.8770 o         1 MOL     -0.512365
     76 H32        -8.3860    0.2500   -0.6520 hn        1 MOL      0.298922
     77 H33        -7.3440    2.4080    1.1440 h1        1 MOL      0.076853
     78 H34        -8.5560    2.7740   -0.0440 h1        1 MOL      0.076853
     79 N8         -5.8910    3.3120   -0.6760 n         1 MOL     -0.529760
     80 C25        -4.8510    3.8340   -1.5520 c3        1 MOL      0.070773
     81 C26        -3.4550    3.5950   -1.1410 c         1 MOL      0.682858
     82 O14        -3.1260    4.0060   -0.0430 o         1 MOL     -0.597312
     83 C27        -5.0420    5.3090   -1.9340 c3        1 MOL      0.334014
     84 C28        -3.8340    5.9510   -2.6000 c3        1 MOL     -0.505245
     85 O15        -5.4120    6.1050   -0.8480 oh        1 MOL     -0.567840
     86 H35        -6.0720    3.8240    0.1730 hn        1 MOL      0.290562
     87 H36        -5.0000    3.3570   -2.5210 h1        1 MOL      0.027190
     88 H37        -5.9450    5.3530   -2.5490 h1        1 MOL     -0.009621
     89 H38        -6.1520    5.6310   -0.4460 ho        1 MOL      0.337433
     90 H39        -3.4700    5.2670   -3.3770 hc        1 MOL      0.153774
     91 H40        -4.1980    6.9010   -2.9670 hc        1 MOL      0.153774
     92 H41        -3.0770    6.2620   -1.8790 hc        1 MOL      0.153774
     93 N9         -2.7080    2.9720   -2.0180 n         1 MOL     -0.418551
     94 C29        -1.2550    2.7180   -1.8130 c3        1 MOL     -0.102771
     95 C30        -0.5960    4.0160   -1.2620 c         1 MOL      0.464659
     96 O16        -0.8360    5.1510   -1.7330 o         1 MOL     -0.546193
     97 C31        -0.6760    2.3210   -3.1400 c3        1 MOL      0.031655
     98 C32        -1.3040    0.9420   -3.6520 c3        1 MOL     -0.073787
     99 C33         0.8830    2.1980   -3.1850 c3        1 MOL     -0.138126
    100 C34        -0.9760    0.5630   -5.0790 c3        1 MOL     -0.083607
    101 H42        -3.2130    2.4040   -2.6940 hn        1 MOL      0.263404
    102 H43        -1.1960    2.0030   -0.9940 h1        1 MOL      0.018548
    103 H44        -0.9800    3.0650   -3.8760 hc        1 MOL      0.052015
    104 H45        -2.3960    0.9740   -3.5840 hc        1 MOL      0.057911
    105 H46        -1.0740    0.1440   -2.9480 hc        1 MOL      0.057911
    106 H47         1.2070    2.0380   -4.2160 hc        1 MOL      0.034420
    107 H48         1.3080    3.1520   -2.8580 hc        1 MOL      0.034420
    108 H49         1.2600    1.3660   -2.5870 hc        1 MOL      0.034420
    109 H50         0.0360    0.2090   -5.2390 hc        1 MOL      0.022374
    110 H51        -1.6720   -0.2070   -5.4290 hc        1 MOL      0.022374
    111 H52        -1.1340    1.4130   -5.7410 hc        1 MOL      0.022374
    112 N10         0.1180    3.8350   -0.2150 n         1 MOL     -0.013232
    113 C35         1.0530    4.6380    0.5400 c3        1 MOL     -0.394173
    114 C36         2.5720    4.4690    0.2030 c         1 MOL      0.505490
    115 O17         3.4350    5.3260    0.4680 o         1 MOL     -0.528114
    116 C37         0.8480    4.4470    2.0670 c3        1 MOL      0.389254
    117 C38         0.6990    3.0620    2.7760 c3        1 MOL     -0.467559
    118 O18        -0.4670    4.9870    2.3020 oh        1 MOL     -0.623330
    119 H53         0.1810    2.9220    0.1980 hn        1 MOL      0.185720
    120 H54         0.9040    5.6780    0.2660 h1        1 MOL      0.165571
    121 H55         1.5880    4.9960    2.6500 h1        1 MOL      0.070666
    122 H56        -1.0110    4.6700    1.5770 ho        1 MOL      0.387262
    123 H57        -0.2490    2.5800    2.5250 hc        1 MOL      0.124646
    124 H58         1.5990    2.4670    2.6580 hc        1 MOL      0.124646
    125 H59         0.4800    3.3090    3.8150 hc        1 MOL      0.124646
    126 N11         2.8820    3.3720   -0.4360 n         1 MOL     -0.123067
    127 C39         4.2400    2.8920   -0.7920 c3        1 MOL     -0.152744
    128 C40         5.2290    2.6600    0.4170 c         1 MOL      0.451283
    129 O19         4.9310    2.9240    1.5890 o         1 MOL     -0.471497
    130 C41         4.8610    3.7890   -1.8780 c3        1 MOL      0.337383
    131 C42         3.9830    4.1080   -3.0570 c3        1 MOL     -0.410833
    132 O20         6.0790    3.1700   -2.4230 oh        1 MOL     -0.656553
    133 H60         2.2080    2.6170   -0.4980 hn        1 MOL      0.197657
    134 H61         4.1390    1.9190   -1.2820 h1        1 MOL      0.143792
    135 H62         5.1400    4.7580   -1.4470 h1        1 MOL      0.032528
    136 H63         6.4220    3.7060   -3.1430 ho        1 MOL      0.375882
    137 H64         3.6410    3.1300   -3.3960 hc        1 MOL      0.113852
    138 H65         3.0940    4.5970   -2.6620 hc        1 MOL      0.113852
    139 H66         4.5180    4.6410   -3.8550 hc        1 MOL      0.113852
    140 N12         6.3440    1.9930    0.2300 n         1 MOL     -0.247431
    141 C43         7.3150    1.5570    1.2920 c3        1 MOL     -0.076486
    142 C44         7.0490    0.1590    1.8950 c         1 MOL      0.645720
    143 O21         7.8080   -0.2100    2.7630 o         1 MOL     -0.537627
    144 C45         8.6870    1.6370    0.6400 c3        1 MOL     -0.194414
    145 C46         8.7840    0.9900   -0.7530 c3        1 MOL      0.249859
    146 C47        10.1880    1.0640   -1.2600 c3        1 MOL     -0.291614
    147 C48        10.2460    0.7030   -2.7910 c3        1 MOL     -0.004513
    148 N13         9.8500    1.7910   -3.6780 n4        1 MOL     -0.228333
    149 H67         6.5920    1.7520   -0.7140 hn        1 MOL      0.146671
    150 H68         7.2960    2.2610    2.1230 h1        1 MOL      0.149043
    151 H69         9.4420    1.2380    1.3140 hc        1 MOL      0.061976
    152 H70         8.8300    2.7020    0.4350 hc        1 MOL      0.061976
    153 H71         8.1290    1.4880   -1.4690 hc        1 MOL     -0.017922
    154 H72         8.5210   -0.0640   -0.7240 hc        1 MOL     -0.017922
    155 H73        10.6860    0.2920   -0.6830 hc        1 MOL      0.113002
    156 H74        10.6740    2.0310   -1.0960 hc        1 MOL      0.113002
    157 H75         9.6090   -0.1610   -3.0080 hx        1 MOL      0.101158
    158 H76        11.2690    0.4580   -3.0930 hx        1 MOL      0.101158
    159 H77         9.9550    2.7090   -3.2820 hn        1 MOL      0.262566
    160 H78        10.2490    1.6290   -4.5880 hn        1 MOL      0.262566
    161 H79         8.8410    1.8080   -3.7730 hn        1 MOL      0.262566
    162 N14         6.1070   -0.5740    1.3150 n         1 MOL     -0.405676
    163 C49         5.5810   -1.8080    1.9060 c3        1 MOL     -0.186483
    164 C50         6.4410   -3.0020    1.5110 c         1 MOL      0.467908
    165 O22         6.0250   -3.8300    0.7390 o         1 MOL     -0.511731
    166 C51         4.1210   -1.9450    1.6950 c3        1 MOL      0.390456
    167 C52         3.2470   -0.8350    2.3140 c3        1 MOL      0.011854
    168 C53         3.2580   -0.6890    3.8100 c         1 MOL      0.605349
    169 O23         4.2290   -0.0620    4.3660 o         1 MOL     -0.731214
    170 O24         2.2550   -1.0760    4.4870 o         1 MOL     -0.731214
    171 H80         5.5980   -0.1830    0.5400 hn        1 MOL      0.221602
    172 H81         5.6970   -1.6710    2.9800 h1        1 MOL      0.134640
    173 H82         3.8060   -2.9030    2.0880 hc        1 MOL     -0.035102
    174 H83         3.9570   -1.7950    0.6240 hc        1 MOL     -0.035102
    175 H84         2.2110   -1.0010    2.0430 hc        1 MOL     -0.066652
    176 H85         3.5830    0.0600    1.7990 hc        1 MOL     -0.066652
    177 N15         7.6920   -2.9860    1.8300 n         1 MOL     -0.318768
    178 C54         8.7620   -4.0060    1.4530 c3        1 MOL     -0.025573
    179 H86         9.5560   -3.9910    2.1990 h1        1 MOL      0.059200
    180 H87         8.3180   -5.0010    1.4140 h1        1 MOL      0.059200
    181 H88         9.1770   -3.7550    0.4770 h1        1 MOL      0.059200
    182 H89         7.9730   -2.0840    2.2070 hn        1 MOL      0.223814
    183 Ca1        -0.1470   -0.3700    5.0820 Ca        1 MOL      1.836983
    184 O25        -1.5640    1.7770    5.1870 oh        1 MOL     -0.946521
    185 H90        -1.4580    2.6230    5.6190 ho        1 MOL      0.461036
    186 H91        -2.4070    1.8470    4.7230 ho        1 MOL      0.461036
    187 O26        -2.3960   -1.4680    6.3550 oh        1 MOL     -0.946521
    188 H92        -2.5790   -2.3850    6.5560 ho        1 MOL      0.461036
    189 H93        -3.1070   -0.9880    6.7830 ho        1 MOL      0.461036
    190 O27         0.0550   -2.8830    4.8520 oh        1 MOL     -0.946521
    191 H94         0.3810   -3.5570    5.4550 ho        1 MOL      0.461036
    192 H95        -0.0520   -3.3440    4.0110 ho        1 MOL      0.461036
    193 O28         1.8260    1.3940    5.5550 oh        1 MOL     -0.946521
    194 H96         2.6840    1.0430    5.3360 ho        1 MOL      0.461036
    195 H97         1.9750    2.3300    5.6850 ho        1 MOL      0.461036
@<TRIPOS>BOND
     1    1    2 1   
     2    1    4 1   
     3    1    5 1   
     4    1    6 1   
     5    2    3 2   
     6    2    7 1   
     7    7    8 1   
     8    7   15 1   
     9    8    9 1   
    10    8   11 1   
    11    8   16 1   
    12    9   10 2   
    13    9   19 1   
    14   11   12 1   
    15   11   17 1   
    16   11   18 1   
    17   12   13 1   
    18   12   14 1   
    19   19   20 1   
    20   19   28 1   
    21   20   21 1   
    22   20   23 1   
    23   20   29 1   
    24   21   22 2   
    25   21   41 1   
    26   23   24 1   
    27   23   30 1   
    28   23   31 1   
    29   24   25 1   
    30   24   32 1   
    31   24   33 1   
    32   25   26 1   
    33   25   34 1   
    34   25   35 1   
    35   26   27 1   
    36   26   36 1   
    37   26   37 1   
    38   27   38 1   
    39   27   39 1   
    40   27   40 1   
    41   41   42 1   
    42   41   49 1   
    43   42   43 1   
    44   42   45 1   
    45   42   50 1   
    46   43   44 2   
    47   43   53 1   
    48   45   46 1   
    49   45   51 1   
    50   45   52 1   
    51   46   47 1   
    52   46   48 1   
    53   53   54 1   
    54   53   57 1   
    55   54   55 1   
    56   54   58 1   
    57   54   59 1   
    58   55   56 2   
    59   55   60 1   
    60   60   61 1   
    61   60   68 1   
    62   61   62 1   
    63   61   64 1   
    64   61   69 1   
    65   62   63 2   
    66   62   72 1   
    67   64   65 1   
    68   64   70 1   
    69   64   71 1   
    70   65   66 1   
    71   65   67 1   
    72   72   73 1   
    73   72   76 1   
    74   73   74 1   
    75   73   77 1   
    76   73   78 1   
    77   74   75 2   
    78   74   79 1   
    79   79   80 1   
    80   79   86 1   
    81   80   81 1   
    82   80   83 1   
    83   80   87 1   
    84   81   82 2   
    85   81   93 1   
    86   83   84 1   
    87   83   85 1   
    88   83   88 1   
    89   84   90 1   
    90   84   91 1   
    91   84   92 1   
    92   85   89 1   
    93   93   94 1   
    94   93  101 1   
    95   94   95 1   
    96   94   97 1   
    97   94  102 1   
    98   95   96 2   
    99   95  112 1   
   100   97   98 1   
   101   97   99 1   
   102   97  103 1   
   103   98  100 1   
   104   98  104 1   
   105   98  105 1   
   106   99  106 1   
   107   99  107 1   
   108   99  108 1   
   109  100  109 1   
   110  100  110 1   
   111  100  111 1   
   112  112  113 1   
   113  112  119 1   
   114  113  114 1   
   115  113  116 1   
   116  113  120 1   
   117  114  115 2   
   118  114  126 1   
   119  116  117 1   
   120  116  118 1   
   121  116  121 1   
   122  117  123 1   
   123  117  124 1   
   124  117  125 1   
   125  118  122 1   
   126  126  127 1   
   127  126  133 1   
   128  127  128 1   
   129  127  130 1   
   130  127  134 1   
   131  128  129 2   
   132  128  140 1   
   133  130  131 1   
   134  130  132 1   
   135  130  135 1   
   136  131  137 1   
   137  131  138 1   
   138  131  139 1   
   139  132  136 1   
   140  140  141 1   
   141  140  149 1   
   142  141  142 1   
   143  141  144 1   
   144  141  150 1   
   145  142  143 2   
   146  142  162 1   
   147  144  145 1   
   148  144  151 1   
   149  144  152 1   
   150  145  146 1   
   151  145  153 1   
   152  145  154 1   
   153  146  147 1   
   154  146  155 1   
   155  146  156 1   
   156  147  148 1   
   157  147  157 1   
   158  147  158 1   
   159  148  159 1   
   160  148  160 1   
   161  148  161 1   
   162  162  163 1   
   163  162  171 1   
   164  163  164 1   
   165  163  166 1   
   166  163  172 1   
   167  164  165 2   
   168  164  177 1   
   169  166  167 1   
   170  166  173 1   
   171  166  174 1   
   172  167  168 1   
   173  167  175 1   
   174  167  176 1   
   175  168  169 1   
   176  168  170 1   
   177  177  178 1   
   178  177  182 1   
   179  178  179 1   
   180  178  180 1   
   181  178  181 1   
   182  184  185 1   
   183  184  186 1   
   184  187  188 1   
   185  187  189 1   
   186  190  191 1   
   187  190  192 1   
   188  193  194 1   
   189  193  195 1   
@<TRIPOS>SUBSTRUCTURE
     1 MOL         1 TEMP              0 ****  ****    0 ROOT
