@<TRIPOS>MOLECULE
MOL
  189   185     1     0     0
SMALL
resp


@<TRIPOS>ATOM
      1 C1         -4.4640   -4.4220   -3.2670 c3        1 MOL     -0.443479
      2 C2         -5.2690   -3.6610   -2.1510 c         1 MOL      0.802930
      3 O1         -4.7020   -3.3940   -1.0600 o         1 MOL     -0.679963
      4 H1         -3.5160   -3.9140   -3.4400 hc        1 MOL      0.115550
      5 H2         -4.2730   -5.4460   -2.9450 hc        1 MOL      0.115550
      6 H3         -5.0440   -4.4330   -4.1900 hc        1 MOL      0.115550
      7 N1         -6.5010   -3.2300   -2.4560 n         1 MOL     -0.824847
      8 C3         -7.2290   -2.1310   -1.7430 c3        1 MOL      0.551634
      9 C4         -6.2700   -0.8690   -1.4430 c         1 MOL      0.275649
     10 O2         -5.8970   -0.5610   -0.3120 o         1 MOL     -0.507984
     11 C5         -8.1210   -2.6740   -0.5750 c3        1 MOL     -0.263345
     12 C6         -7.3420   -3.6870    0.3160 c         1 MOL      0.868400
     13 O3         -6.7110   -3.1440    1.2930 o         1 MOL     -0.761748
     14 O4         -7.3920   -4.9010    0.2460 o         1 MOL     -0.761748
     15 H4         -6.9100   -3.5510   -3.3240 hn        1 MOL      0.357604
     16 H5         -7.9360   -1.7040   -2.4510 h1        1 MOL     -0.054654
     17 H6         -8.9640   -3.1520   -1.0700 hc        1 MOL      0.026098
     18 H7         -8.4120   -1.7890   -0.0200 hc        1 MOL      0.026098
     19 N2         -5.9220   -0.1330   -2.5110 n         1 MOL     -0.416210
     20 C7         -5.1750    1.0830   -2.6510 c3        1 MOL      0.067614
     21 C8         -5.6630    2.3900   -1.9600 c         1 MOL      0.455370
     22 O5         -5.8450    3.3710   -2.6210 o         1 MOL     -0.559820
     23 C9         -3.6820    0.9210   -2.5410 c3        1 MOL      0.008320
     24 C10        -2.8010    2.1110   -3.0090 c3        1 MOL      0.162158
     25 C11        -3.2750   -0.3510   -3.2810 c3        1 MOL     -0.048335
     26 C12        -2.9520    2.6170   -4.4530 c3        1 MOL     -0.439566
     27 H8         -6.1380   -0.6440   -3.3470 hn        1 MOL      0.256240
     28 H9         -5.4480    1.2760   -3.6950 h1        1 MOL      0.039153
     29 H10        -3.4880    0.8030   -1.4700 hc        1 MOL     -0.060124
     30 H11        -1.7660    1.7800   -2.9370 hc        1 MOL      0.029136
     31 H12        -2.9060    2.9020   -2.2620 hc        1 MOL      0.029136
     32 H13        -3.5810   -0.4080   -4.3250 hc        1 MOL      0.008095
     33 H14        -2.1900   -0.4620   -3.3360 hc        1 MOL      0.008095
     34 H15        -3.6850   -1.2270   -2.7840 hc        1 MOL      0.008095
     35 H16        -2.0960    3.2880   -4.4650 hc        1 MOL      0.091762
     36 H17        -2.7530    1.8190   -5.1630 hc        1 MOL      0.091762
     37 H18        -3.8640    3.2210   -4.5480 hc        1 MOL      0.091762
     38 N3         -6.1290    2.2410   -0.7470 n         1 MOL     -0.152330
     39 C13        -6.8350    3.3040   -0.0100 c3        1 MOL     -0.172784
     40 C14        -6.0200    4.6350    0.2520 c         1 MOL      0.595815
     41 O6         -6.6760    5.6620    0.5820 o         1 MOL     -0.587917
     42 C15        -7.1280    2.7020    1.3940 c3        1 MOL     -0.103147
     43 C16        -8.0370    1.4300    1.3730 c         1 MOL      0.719935
     44 O7         -7.9090    0.6180    2.3310 o         1 MOL     -0.691635
     45 O8         -8.9320    1.3380    0.5560 o         1 MOL     -0.691635
     46 H19        -5.9190    1.3620   -0.3060 hn        1 MOL      0.254642
     47 H20        -7.7670    3.5420   -0.5330 h1        1 MOL      0.102694
     48 H21        -7.7090    3.4290    1.9730 hc        1 MOL      0.034661
     49 H22        -6.1980    2.4910    1.9100 hc        1 MOL      0.034661
     50 N4         -4.6960    4.7640    0.2860 n         1 MOL     -0.558850
     51 C17        -3.7640    3.7200    0.7900 c3        1 MOL      0.185934
     52 C18        -2.4740    4.2670    1.3640 c         1 MOL      0.516230
     53 O9         -2.1160    5.3490    0.8850 o         1 MOL     -0.571583
     54 H23        -4.2520    5.6620    0.2050 hn        1 MOL      0.312994
     55 H24        -3.5090    3.0770   -0.0530 h1        1 MOL      0.063902
     56 H25        -4.1170    3.0000    1.5310 h1        1 MOL      0.063902
     57 N5         -1.7060    3.6450    2.2760 n         1 MOL     -0.555622
     58 C19        -2.0860    2.3310    2.8550 c3        1 MOL      0.068840
     59 C20        -2.1980    1.2200    1.8270 c         1 MOL      0.205786
     60 O10        -3.3040    0.6810    1.6040 o         1 MOL     -0.575132
     61 C21        -3.2270    2.5020    3.9380 c3        1 MOL     -0.187123
     62 C22        -3.5980    1.2100    4.5730 c         1 MOL      0.838579
     63 O11        -2.6710    0.6180    5.1140 o         1 MOL     -0.723482
     64 O12        -4.7900    0.8930    4.6330 o         1 MOL     -0.723482
     65 H26        -0.8090    4.0080    2.5470 hn        1 MOL      0.346468
     66 H27        -1.2380    2.0980    3.5110 h1        1 MOL      0.070007
     67 H28        -4.1100    3.0260    3.5630 hc        1 MOL      0.042712
     68 H29        -2.8520    3.0770    4.7840 hc        1 MOL      0.042712
     69 N6         -1.1600    0.8200    1.0620 n         1 MOL     -0.123425
     70 C23         0.2610    1.2910    1.1610 c3        1 MOL      0.004765
     71 C24         0.6330    2.5640    0.4110 c         1 MOL      0.600815
     72 O13        -0.1410    3.1280   -0.3750 o         1 MOL     -0.550500
     73 H30        -1.3530    0.3190    0.2050 hn        1 MOL      0.158044
     74 H31         0.8580    0.4300    0.8710 h1        1 MOL      0.056106
     75 H32         0.4640    1.4270    2.2280 h1        1 MOL      0.056106
     76 N7          1.8600    3.0980    0.6420 n         1 MOL     -0.606093
     77 C25         2.2060    4.3590   -0.1180 c3        1 MOL     -0.027954
     78 C26         2.7550    4.1190   -1.5480 c         1 MOL      0.552948
     79 O14         2.9150    5.0860   -2.3020 o         1 MOL     -0.528424
     80 C27         3.1640    5.1940    0.7130 c3        1 MOL      0.237824
     81 C28         3.3240    6.6500    0.3940 c3        1 MOL     -0.431842
     82 C29         4.2410    7.2800    1.4750 c         1 MOL      0.711795
     83 N8          4.0070    8.4860    1.7990 n         1 MOL     -0.687250
     84 O15         5.1660    6.7700    2.0810 o         1 MOL     -0.586627
     85 H33         2.3880    2.6290    1.3730 hn        1 MOL      0.280589
     86 H34         1.3000    4.9780   -0.1210 h1        1 MOL      0.153661
     87 H35         4.1540    4.7270    0.8120 hc        1 MOL     -0.007942
     88 H36         2.6420    5.2790    1.6670 hc        1 MOL     -0.007942
     89 H37         2.3800    7.1980    0.4100 hc        1 MOL      0.105152
     90 H38         3.8670    6.7150   -0.5510 hc        1 MOL      0.105152
     91 H39         3.6370    9.0470    1.0470 hn        1 MOL      0.311674
     92 H40         4.6780    8.9360    2.4100 hn        1 MOL      0.311674
     93 N9          2.9130    2.8140   -1.9950 n         1 MOL     -0.377492
     94 C30         3.3430    2.5650   -3.4270 c3        1 MOL     -0.112839
     95 C31         4.7470    1.9790   -3.5150 c         1 MOL      0.598581
     96 O16         5.4190    2.0690   -4.5390 o         1 MOL     -0.567698
     97 C32         2.2510    1.7060   -4.2320 c3        1 MOL      0.059846
     98 C33         1.0170    2.5570   -4.5800 c3        1 MOL     -0.130276
     99 C34         1.8660    0.3900   -3.4780 c3        1 MOL     -0.130276
    100 H41         2.8260    2.0050   -1.3910 hn        1 MOL      0.340267
    101 H42         3.6080    3.5190   -3.8660 h1        1 MOL      0.117298
    102 H43         2.7040    1.4200   -5.1870 hc        1 MOL      0.031195
    103 H44         1.2670    3.3930   -5.2320 hc        1 MOL      0.037993
    104 H45         0.2100    2.0140   -5.0810 hc        1 MOL      0.037993
    105 H46         0.5480    2.9450   -3.6790 hc        1 MOL      0.037993
    106 H47         0.8470    0.0880   -3.7370 hc        1 MOL      0.037993
    107 H48         2.4840   -0.4840   -3.6740 hc        1 MOL      0.037993
    108 H49         1.8250    0.5620   -2.4080 hc        1 MOL      0.037993
    109 N10         5.1560    1.3040   -2.4220 n         1 MOL     -0.409131
    110 C35         6.4800    0.6000   -2.2160 c3        1 MOL      0.171182
    111 C36         6.5040   -0.7450   -1.5730 c         1 MOL      0.462283
    112 O17         7.1600   -1.6290   -2.1240 o         1 MOL     -0.559657
    113 C37         7.4180    1.5370   -1.5020 c3        1 MOL     -0.315536
    114 C38         6.9730    2.0170   -0.1020 c         1 MOL      0.595846
    115 N11         7.7970    2.7220    0.5890 n         1 MOL     -0.678865
    116 O18         5.8720    1.7940    0.3900 o         1 MOL     -0.499349
    117 H50         4.5230    1.2570   -1.6260 hn        1 MOL      0.092240
    118 H51         6.9040    0.4150   -3.1980 h1        1 MOL      0.069328
    119 H52         7.6630    2.3830   -2.1430 hc        1 MOL      0.109181
    120 H53         8.4230    1.1200   -1.4740 hc        1 MOL      0.109181
    121 H54         8.7180    2.9780    0.2530 hn        1 MOL      0.342462
    122 H55         7.5040    3.0320    1.5090 hn        1 MOL      0.342462
    123 N12         5.8200   -0.9830   -0.4630 n         1 MOL     -0.319401
    124 C39         5.8110   -2.3510    0.2180 c3        1 MOL      0.009784
    125 C40         4.4140   -2.9190    0.4390 c         1 MOL      0.637770
    126 O19         3.4280   -2.2030    0.3170 o         1 MOL     -0.508818
    127 C41         6.6260   -2.2600    1.5130 c3        1 MOL     -0.247360
    128 C42         8.0180   -1.5710    1.3700 ca        1 MOL      0.098432
    129 C43         9.0760   -2.2650    0.7720 ca        1 MOL     -0.154226
    130 C44         8.2600   -0.3140    2.0270 ca        1 MOL     -0.154226
    131 C45        10.3380   -1.6770    0.5450 ca        1 MOL     -0.221054
    132 C46         9.5790    0.2070    1.9620 ca        1 MOL     -0.221054
    133 C47        10.6200   -0.4620    1.1680 ca        1 MOL      0.244940
    134 O20        11.8190    0.2300    0.9990 oh        1 MOL     -0.524016
    135 H56         5.2330   -0.2320   -0.1150 hn        1 MOL      0.265098
    136 H57         6.1670   -3.0400   -0.5380 h1        1 MOL      0.054278
    137 H58         6.8610   -3.2400    1.9200 hc        1 MOL      0.118193
    138 H59         6.0530   -1.6620    2.2200 hc        1 MOL      0.118193
    139 H60         8.9250   -3.2240    0.3010 ha        1 MOL      0.136818
    140 H61         7.5190    0.2960    2.5250 ha        1 MOL      0.136818
    141 H62        11.1550   -2.1800    0.0500 ha        1 MOL      0.131500
    142 H63         9.7470    1.1390    2.4670 ha        1 MOL      0.131500
    143 H64        12.4750   -0.2540    0.5060 ho        1 MOL      0.380762
    144 N13         4.3960   -4.1580    0.9920 n         1 MOL     -0.574700
    145 C48         3.2050   -5.0090    1.2860 c3        1 MOL      0.035162
    146 C49         2.0700   -5.1380    0.3180 c         1 MOL      0.308433
    147 O21         1.3600   -6.1370    0.3790 o         1 MOL     -0.499730
    148 C50         2.6520   -4.5500    2.6280 c3        1 MOL      0.204134
    149 C51         3.5930   -4.5780    3.7850 c3        1 MOL     -0.186296
    150 C52         3.0790   -4.1510    5.1340 c         1 MOL      0.690132
    151 O22         3.8160   -3.3920    5.8280 o         1 MOL     -0.721482
    152 O23         1.9730   -4.5190    5.5680 o         1 MOL     -0.721482
    153 H65         5.2960   -4.5650    1.1800 hn        1 MOL      0.320959
    154 H66         3.6690   -5.9840    1.5000 h1        1 MOL      0.064416
    155 H67         1.7860   -5.1620    2.8880 hc        1 MOL      0.012339
    156 H68         2.2400   -3.5430    2.5300 hc        1 MOL      0.012339
    157 H69         4.4650   -3.9620    3.5660 hc        1 MOL     -0.021217
    158 H70         4.0020   -5.5870    3.8730 hc        1 MOL     -0.021217
    159 N14         1.9540   -4.2920   -0.7180 n         1 MOL     -0.226956
    160 C53         0.8040   -4.2410   -1.5990 c3        1 MOL      0.026393
    161 C54         0.9790   -4.7700   -3.0080 c         1 MOL      0.389178
    162 O24         0.0160   -4.9260   -3.7110 o         1 MOL     -0.519113
    163 C55         0.3860   -2.7440   -1.7780 c3        1 MOL      0.110986
    164 C56         0.1170   -1.9910   -0.4400 c3        1 MOL      0.258243
    165 C57        -1.2940   -2.2420   -0.0150 c         1 MOL      0.347930
    166 O25        -1.5990   -3.2130    0.6990 o         1 MOL     -0.548010
    167 O26        -2.0910   -1.3800   -0.4620 o         1 MOL     -0.548010
    168 H71         2.7290   -3.6440   -0.7740 hn        1 MOL      0.156178
    169 H72        -0.0620   -4.8280   -1.2920 h1        1 MOL      0.132192
    170 H73        -0.4420   -2.6750   -2.4850 hc        1 MOL     -0.029807
    171 H74         1.2100   -2.2050   -2.2430 hc        1 MOL     -0.029807
    172 H75         0.4300   -0.9630   -0.6110 hc        1 MOL     -0.106574
    173 H76         0.7870   -2.3180    0.3610 hc        1 MOL     -0.106574
    174 N15         2.1970   -5.2060   -3.2700 n         1 MOL     -0.226076
    175 C58         2.5930   -6.0110   -4.4620 c3        1 MOL     -0.168114
    176 H77         3.4240   -5.5220   -4.9700 h1        1 MOL      0.082445
    177 H78         2.8980   -7.0070   -4.1430 h1        1 MOL      0.082445
    178 H79         1.7470   -6.0900   -5.1450 h1        1 MOL      0.082445
    179 H80         2.8970   -5.0200   -2.5560 hn        1 MOL      0.201526
    180 Ca1        -4.1050   -2.0460    1.1040 Ca        1 MOL      1.801744
    181 O27        -2.5480   -1.5150    3.2180 oh        1 MOL     -0.899733
    182 H81        -2.6540   -0.8200    3.8710 ho        1 MOL      0.426437
    183 H82        -1.6450   -1.7980    3.3180 ho        1 MOL      0.426437
    184 O28        -5.6160   -0.8030    2.8150 oh        1 MOL     -0.899733
    185 H83        -5.2970   -0.2930    3.5550 ho        1 MOL      0.426437
    186 H84        -6.3540   -0.2900    2.4740 ho        1 MOL      0.426437
    187 O29        -3.9670   -4.7160    1.5670 oh        1 MOL     -0.899733
    188 H85        -3.2450   -5.2930    1.3360 ho        1 MOL      0.426437
    189 H86        -4.7520   -5.2300    1.3970 ho        1 MOL      0.426437
@<TRIPOS>BOND
     1    1    2 1   
     2    1    4 1   
     3    1    5 1   
     4    1    6 1   
     5    2    3 2   
     6    2    7 1   
     7    7    8 1   
     8    7   15 1   
     9    8    9 1   
    10    8   11 1   
    11    8   16 1   
    12    9   10 2   
    13    9   19 1   
    14   11   12 1   
    15   11   17 1   
    16   11   18 1   
    17   12   13 1   
    18   12   14 1   
    19   19   20 1   
    20   19   27 1   
    21   20   21 1   
    22   20   23 1   
    23   20   28 1   
    24   21   22 2   
    25   21   38 1   
    26   23   24 1   
    27   23   25 1   
    28   23   29 1   
    29   24   26 1   
    30   24   30 1   
    31   24   31 1   
    32   25   32 1   
    33   25   33 1   
    34   25   34 1   
    35   26   35 1   
    36   26   36 1   
    37   26   37 1   
    38   38   39 1   
    39   38   46 1   
    40   39   40 1   
    41   39   42 1   
    42   39   47 1   
    43   40   41 2   
    44   40   50 1   
    45   42   43 1   
    46   42   48 1   
    47   42   49 1   
    48   43   44 1   
    49   43   45 1   
    50   50   51 1   
    51   50   54 1   
    52   51   52 1   
    53   51   55 1   
    54   51   56 1   
    55   52   53 2   
    56   52   57 1   
    57   57   58 1   
    58   57   65 1   
    59   58   59 1   
    60   58   61 1   
    61   58   66 1   
    62   59   60 2   
    63   59   69 1   
    64   61   62 1   
    65   61   67 1   
    66   61   68 1   
    67   62   63 1   
    68   62   64 1   
    69   69   70 1   
    70   69   73 1   
    71   70   71 1   
    72   70   74 1   
    73   70   75 1   
    74   71   72 2   
    75   71   76 1   
    76   76   77 1   
    77   76   85 1   
    78   77   78 1   
    79   77   80 1   
    80   77   86 1   
    81   78   79 2   
    82   78   93 1   
    83   80   81 1   
    84   80   87 1   
    85   80   88 1   
    86   81   82 1   
    87   81   89 1   
    88   81   90 1   
    89   82   83 1   
    90   82   84 2   
    91   83   91 1   
    92   83   92 1   
    93   93   94 1   
    94   93  100 1   
    95   94   95 1   
    96   94   97 1   
    97   94  101 1   
    98   95   96 2   
    99   95  109 1   
   100   97   98 1   
   101   97   99 1   
   102   97  102 1   
   103   98  103 1   
   104   98  104 1   
   105   98  105 1   
   106   99  106 1   
   107   99  107 1   
   108   99  108 1   
   109  109  110 1   
   110  109  117 1   
   111  110  111 1   
   112  110  113 1   
   113  110  118 1   
   114  111  112 2   
   115  111  123 1   
   116  113  114 1   
   117  113  119 1   
   118  113  120 1   
   119  114  115 1   
   120  114  116 2   
   121  115  121 1   
   122  115  122 1   
   123  123  124 1   
   124  123  135 1   
   125  124  125 1   
   126  124  127 1   
   127  124  136 1   
   128  125  126 2   
   129  125  144 1   
   130  127  128 1   
   131  127  137 1   
   132  127  138 1   
   133  128  129 ar  
   134  128  130 ar  
   135  129  131 ar  
   136  129  139 1   
   137  130  132 ar  
   138  130  140 1   
   139  131  133 ar  
   140  131  141 1   
   141  132  133 ar  
   142  132  142 1   
   143  133  134 1   
   144  134  143 1   
   145  144  145 1   
   146  144  153 1   
   147  145  146 1   
   148  145  148 1   
   149  145  154 1   
   150  146  147 2   
   151  146  159 1   
   152  148  149 1   
   153  148  155 1   
   154  148  156 1   
   155  149  150 1   
   156  149  157 1   
   157  149  158 1   
   158  150  151 1   
   159  150  152 1   
   160  159  160 1   
   161  159  168 1   
   162  160  161 1   
   163  160  163 1   
   164  160  169 1   
   165  161  162 2   
   166  161  174 1   
   167  163  164 1   
   168  163  170 1   
   169  163  171 1   
   170  164  165 1   
   171  164  172 1   
   172  164  173 1   
   173  165  166 1   
   174  165  167 1   
   175  174  175 1   
   176  174  179 1   
   177  175  176 1   
   178  175  177 1   
   179  175  178 1   
   180  181  182 1   
   181  181  183 1   
   182  184  185 1   
   183  184  186 1   
   184  187  188 1   
   185  187  189 1   
@<TRIPOS>SUBSTRUCTURE
     1 MOL         1 TEMP              0 ****  ****    0 ROOT
