@<TRIPOS>MOLECULE
MOL
  195   189     1     0     0
SMALL
resp


@<TRIPOS>ATOM
      1 C1         -0.2380    4.2440    2.7290 c3        1 MOL     -0.011327
      2 C2         -1.0990    3.8830    1.5120 c         1 MOL      0.398226
      3 O1         -1.5780    2.7440    1.3340 o         1 MOL     -0.511517
      4 H1         -0.7680    4.9660    3.3480 hc        1 MOL     -0.029503
      5 H2         -0.0370    3.3450    3.3110 hc        1 MOL     -0.029503
      6 H3          0.7040    4.6770    2.3930 hc        1 MOL     -0.029503
      7 N1         -1.3000    4.8160    0.5870 n         1 MOL     -0.069724
      8 C3         -1.8550    4.5460   -0.7440 c3        1 MOL     -0.145632
      9 C4         -3.3220    4.0540   -0.7210 c         1 MOL      0.655712
     10 O2         -3.7810    3.2730   -1.5010 o         1 MOL     -0.494059
     11 C5         -0.9260    3.5550   -1.5880 c3        1 MOL     -0.366990
     12 C6         -1.1830    3.5240   -3.0900 c         1 MOL      0.712579
     13 O3         -1.0060    2.4840   -3.7520 o         1 MOL     -0.614448
     14 O4         -1.2800    4.6680   -3.6330 o         1 MOL     -0.614448
     15 H4         -1.0600    5.7580    0.8550 hn        1 MOL      0.168163
     16 H5         -1.9000    5.4900   -1.2820 h1        1 MOL      0.069165
     17 H6         -1.0430    2.5360   -1.2240 hc        1 MOL      0.145592
     18 H7          0.1090    3.8120   -1.4010 hc        1 MOL      0.145592
     19 N2         -4.0590    4.4220    0.3370 n         1 MOL     -0.426967
     20 C7         -5.4460    4.0620    0.5510 c3        1 MOL     -0.037437
     21 C8         -6.5520    4.7190   -0.3600 c         1 MOL      0.493672
     22 O5         -6.3050    5.7850   -0.8450 o         1 MOL     -0.574399
     23 C9         -5.8340    4.1060    2.0690 c3        1 MOL      0.371971
     24 C10        -5.5480    5.4630    2.6060 c3        1 MOL     -0.184161
     25 C11        -5.1480    2.8450    2.8060 c3        1 MOL     -0.255079
     26 C12        -6.6400    5.6560    3.7180 c3        1 MOL     -0.024989
     27 H8         -3.6040    4.8810    1.1160 hn        1 MOL      0.101984
     28 H9         -5.5170    3.0010    0.3060 h1        1 MOL      0.087412
     29 H10        -6.9070    3.9490    2.1610 hc        1 MOL     -0.015793
     30 H11        -5.7620    6.2150    1.8520 hc        1 MOL      0.061156
     31 H12        -4.5410    5.5130    3.0240 hc        1 MOL      0.061156
     32 H13        -5.5980    2.5190    3.7430 hc        1 MOL      0.059700
     33 H14        -5.2460    1.9680    2.1550 hc        1 MOL      0.059700
     34 H15        -4.0810    3.0560    2.8630 hc        1 MOL      0.059700
     35 H16        -7.6650    5.7890    3.3690 hc        1 MOL     -0.005654
     36 H17        -6.5750    4.8700    4.4700 hc        1 MOL     -0.005654
     37 H18        -6.2990    6.4580    4.3640 hc        1 MOL     -0.005654
     38 N3         -7.7020    4.1460   -0.6270 n         1 MOL     -0.291345
     39 C13        -8.1950    2.8790   -0.1970 c3        1 MOL      0.094026
     40 C14        -7.5900    1.7520   -1.0710 c         1 MOL      0.570996
     41 O6         -7.2930    0.7090   -0.4830 o         1 MOL     -0.575936
     42 C15        -9.7080    2.8330   -0.4020 c3        1 MOL     -0.066440
     43 C16       -10.4820    3.9620    0.2350 c         1 MOL      0.718957
     44 O7        -10.8420    3.8660    1.3890 o         1 MOL     -0.681351
     45 O8        -10.6890    5.0210   -0.3830 o         1 MOL     -0.681351
     46 H19        -8.3660    4.7790   -1.0440 hn        1 MOL      0.204933
     47 H20        -7.9110    2.7000    0.8460 h1        1 MOL     -0.006080
     48 H21       -10.0590    1.9090    0.0500 hc        1 MOL     -0.013332
     49 H22        -9.9600    2.7620   -1.4550 hc        1 MOL     -0.013332
     50 N4         -7.3070    2.0020   -2.3550 n         1 MOL     -0.452540
     51 C17        -6.4740    1.2620   -3.3050 c3        1 MOL      0.003230
     52 C18        -6.6140   -0.2110   -3.2180 c         1 MOL      0.491568
     53 O9         -7.7360   -0.6950   -3.0040 o         1 MOL     -0.522355
     54 H23        -7.5310    2.9380   -2.6800 hn        1 MOL      0.265721
     55 H24        -5.4440    1.5140   -3.0760 h1        1 MOL      0.063549
     56 H25        -6.6130    1.4560   -4.3710 h1        1 MOL      0.063549
     57 N5         -5.4090   -0.8830   -3.4230 n         1 MOL     -0.454803
     58 C19        -5.3700   -2.3240   -3.3950 c3        1 MOL     -0.005730
     59 C20        -5.8730   -2.9330   -2.0870 c         1 MOL      0.377639
     60 O10        -6.2240   -4.1240   -2.1400 o         1 MOL     -0.536214
     61 C21        -3.9720   -2.6900   -3.6830 c3        1 MOL      0.023705
     62 C22        -2.9730   -2.2920   -2.5940 c         1 MOL      0.561330
     63 O11        -2.8360   -3.0590   -1.6300 o         1 MOL     -0.587857
     64 O12        -2.3500   -1.2170   -2.7990 o         1 MOL     -0.587857
     65 H26        -4.6320   -0.3850   -3.8380 hn        1 MOL      0.304314
     66 H27        -5.8910   -2.6820   -4.2790 h1        1 MOL      0.068923
     67 H28        -3.6770   -2.2940   -4.6470 hc        1 MOL     -0.013188
     68 H29        -3.9970   -3.7760   -3.7880 hc        1 MOL     -0.013188
     69 N6         -5.9000   -2.1720   -0.9710 n         1 MOL     -0.009711
     70 C23        -6.4900   -2.6770    0.2860 c3        1 MOL     -0.316599
     71 C24        -5.7100   -3.7520    0.9920 c         1 MOL      0.495732
     72 O13        -6.1450   -4.3070    1.9980 o         1 MOL     -0.599629
     73 H30        -5.4820   -1.2510   -0.9190 hn        1 MOL      0.229609
     74 H31        -7.4420   -3.1710    0.0760 h1        1 MOL      0.145652
     75 H32        -6.6150   -1.8640    1.0010 h1        1 MOL      0.145652
     76 N7         -4.5560   -4.0950    0.4370 n         1 MOL      0.004726
     77 C25        -3.6460   -5.1180    0.7070 c3        1 MOL     -0.063971
     78 C26        -3.0220   -5.0940    2.1770 c         1 MOL      0.316132
     79 O14        -2.6340   -6.1060    2.7730 o         1 MOL     -0.504083
     80 C27        -4.3390   -6.4260    0.2730 c3        1 MOL      0.281955
     81 C28        -4.4470   -6.7090   -1.2020 c3        1 MOL     -0.282332
     82 C29        -4.1300   -8.2200   -1.4820 c         1 MOL      0.648669
     83 N8         -5.1140   -9.0210   -1.7460 n         1 MOL     -0.760460
     84 O15        -2.9850   -8.6760   -1.4700 o         1 MOL     -0.579676
     85 H33        -4.2090   -3.6240   -0.3820 hn        1 MOL     -0.059544
     86 H34        -2.9000   -5.0930   -0.0820 h1        1 MOL      0.122732
     87 H35        -5.3420   -6.4870    0.6870 hc        1 MOL     -0.050487
     88 H36        -3.8500   -7.3050    0.6900 hc        1 MOL     -0.050487
     89 H37        -3.8190   -6.0110   -1.7360 hc        1 MOL      0.075939
     90 H38        -5.4610   -6.5830   -1.5720 hc        1 MOL      0.075939
     91 H39        -6.0480   -8.6440   -1.7260 hn        1 MOL      0.337568
     92 H40        -4.9200   -9.9680   -2.0580 hn        1 MOL      0.337568
     93 N9         -2.8990   -3.9040    2.8230 n         1 MOL     -0.136332
     94 C30        -2.3790   -3.5800    4.1990 c3        1 MOL      0.004182
     95 C31        -1.0310   -2.8770    4.1480 c         1 MOL      0.470999
     96 O16        -0.3470   -2.6690    5.1590 o         1 MOL     -0.567444
     97 C32        -3.3290   -2.5380    4.9390 c3        1 MOL      0.191773
     98 C33        -3.7430   -1.2590    4.1970 c3        1 MOL     -0.258137
     99 C34        -4.6730   -3.1030    5.3790 c3        1 MOL     -0.258137
    100 H41        -3.2260   -3.1170    2.2740 hn        1 MOL      0.149502
    101 H42        -2.2600   -4.5060    4.7700 h1        1 MOL      0.086867
    102 H43        -2.8130   -2.2440    5.8580 hc        1 MOL     -0.021169
    103 H44        -4.1130   -0.5080    4.8800 hc        1 MOL      0.060329
    104 H45        -3.0170   -0.7850    3.5280 hc        1 MOL      0.060329
    105 H46        -4.6600   -1.4520    3.6450 hc        1 MOL      0.060329
    106 H47        -5.3820   -2.2980    5.4920 hc        1 MOL      0.060329
    107 H48        -5.0050   -3.7900    4.5970 hc        1 MOL      0.060329
    108 H49        -4.6180   -3.6860    6.2960 hc        1 MOL      0.060329
    109 N10        -0.6270   -2.4230    2.9540 n         1 MOL     -0.477681
    110 C35         0.5880   -1.6920    2.7160 c3        1 MOL      0.442945
    111 C36         1.4050   -2.2260    1.4420 c         1 MOL      0.336934
    112 O17         0.9100   -2.8800    0.6000 o         1 MOL     -0.483809
    113 C37         0.2580   -0.1980    2.7780 c3        1 MOL     -0.535427
    114 C38         1.3610    0.6930    2.2490 c         1 MOL      0.710551
    115 N11         1.1230    1.4930    1.2390 n         1 MOL     -0.458572
    116 O18         2.3960    0.7910    2.8770 o         1 MOL     -0.632776
    117 H50        -1.2160   -2.5180    2.1330 hn        1 MOL      0.248628
    118 H51         1.2050   -1.8060    3.6100 h1        1 MOL      0.016914
    119 H52         0.1000   -0.0680    3.8480 hc        1 MOL      0.185678
    120 H53        -0.6060    0.0680    2.1770 hc        1 MOL      0.185678
    121 H54         0.2160    1.3650    0.8250 hn        1 MOL      0.215924
    122 H55         1.9260    1.9240    0.7980 hn        1 MOL      0.215924
    123 N12         2.6650   -1.8350    1.3800 n         1 MOL     -0.364265
    124 C39         3.6000   -2.2440    0.2800 c3        1 MOL      0.187734
    125 C40         5.0650   -2.3340    0.6990 c         1 MOL      0.484594
    126 O19         5.3940   -1.9890    1.8440 o         1 MOL     -0.589076
    127 C41         3.3620   -1.2540   -0.9020 c3        1 MOL     -0.350422
    128 C42         3.5750   -1.9310   -2.2930 ca        1 MOL      0.079495
    129 C43         2.5130   -2.6160   -2.8920 ca        1 MOL     -0.120595
    130 C44         4.8160   -1.8830   -2.9930 ca        1 MOL     -0.120595
    131 C45         2.7650   -3.3430   -4.0890 ca        1 MOL     -0.304437
    132 C46         5.0440   -2.6540   -4.1630 ca        1 MOL     -0.304437
    133 C47         4.0210   -3.3910   -4.7330 ca        1 MOL      0.372398
    134 O20         4.1590   -4.0100   -5.9340 oh        1 MOL     -0.508045
    135 H56         3.0280   -1.3640    2.2060 hn        1 MOL      0.194823
    136 H57         3.2380   -3.2140   -0.0360 h1        1 MOL      0.079512
    137 H58         4.0770   -0.4340   -0.8730 hc        1 MOL      0.130343
    138 H59         2.3440   -0.8780   -0.8930 hc        1 MOL      0.130343
    139 H60         1.6030   -2.7520   -2.3160 ha        1 MOL      0.162505
    140 H61         5.5840   -1.2690   -2.5420 ha        1 MOL      0.162505
    141 H62         1.9530   -3.8970   -4.5390 ha        1 MOL      0.148498
    142 H63         6.0360   -2.6320   -4.5970 ha        1 MOL      0.148498
    143 H64         3.3450   -4.4840   -6.1090 ho        1 MOL      0.360095
    144 N13         5.9180   -2.9460   -0.0400 n         1 MOL     -0.498969
    145 C48         7.3720   -2.9140    0.1840 c3        1 MOL      0.437908
    146 C49         8.0090   -1.9020   -0.8230 c         1 MOL      0.256191
    147 O21         8.5080   -2.2880   -1.8630 o         1 MOL     -0.477679
    148 C50         7.8190   -4.3260    0.0390 c3        1 MOL      0.173044
    149 C51         9.2230   -4.4940    0.6000 c3        1 MOL     -0.185610
    150 C52         9.7950   -5.8380    0.0490 c         1 MOL      0.684177
    151 O22        10.7290   -5.7860   -0.7550 o         1 MOL     -0.654055
    152 O23         9.3540   -6.9460    0.5040 o         1 MOL     -0.654055
    153 H65         5.5770   -3.4830   -0.8140 hn        1 MOL      0.222626
    154 H66         7.6040   -2.6190    1.2100 h1        1 MOL      0.025960
    155 H67         7.9060   -4.5490   -1.0230 hc        1 MOL     -0.053595
    156 H68         7.1420   -5.0310    0.5230 hc        1 MOL     -0.053595
    157 H69         9.0630   -4.6650    1.6570 hc        1 MOL      0.026323
    158 H70         9.9080   -3.6630    0.4260 hc        1 MOL      0.026323
    159 N14         8.1630   -0.6090   -0.4690 n         1 MOL     -0.371402
    160 C53         7.6100    0.0350    0.6870 c3        1 MOL      0.196955
    161 C54         8.3740   -0.3520    1.9990 c         1 MOL      0.232362
    162 O24         9.4670   -0.9780    1.9860 o         1 MOL     -0.495779
    163 C55         7.5810    1.5530    0.5180 c3        1 MOL      0.016003
    164 C56         6.7800    2.0270   -0.6820 c3        1 MOL     -1.315812
    165 C57         6.7380    3.5860   -0.8620 c         1 MOL      0.920850
    166 O25         7.6110    4.1590   -1.5720 o         1 MOL     -0.516814
    167 O26         5.7780    4.2150   -0.3930 o         1 MOL     -0.516814
    168 H71         8.7000   -0.1160   -1.1680 hn        1 MOL      0.297524
    169 H72         6.5730   -0.2840    0.7860 h1        1 MOL      0.203370
    170 H73         8.6270    1.8520    0.4100 hc        1 MOL      0.058701
    171 H74         7.0250    1.8630    1.4060 hc        1 MOL      0.058701
    172 H75         5.7790    1.6090   -0.5820 hc        1 MOL      0.306812
    173 H76         7.3500    1.7360   -1.5660 hc        1 MOL      0.306812
    174 N15         7.6970   -0.0270    3.0950 n         1 MOL     -0.184305
    175 C58         7.9250   -0.3900    4.5200 c3        1 MOL     -0.335350
    176 H77         7.0210   -0.8400    4.9290 h1        1 MOL      0.130586
    177 H78         8.7480   -1.1030    4.5870 h1        1 MOL      0.130586
    178 H79         8.1740    0.5060    5.0880 h1        1 MOL      0.130586
    179 H80         6.8660    0.5190    2.9760 hn        1 MOL      0.242298
    180 Ca1         6.4320    6.6080    0.0470 Ca        1 MOL      1.191633
    181 O27         9.1440    6.9850   -0.8450 oh        1 MOL     -0.802000
    182 H81         8.8440    6.9570   -1.7560 ho        1 MOL      0.362357
    183 H82        10.0930    7.0660   -0.9120 ho        1 MOL      0.362357
    184 O28         8.3060    5.1860    1.4090 oh        1 MOL     -0.802000
    185 H83         7.9780    4.8350    2.2380 ho        1 MOL      0.362357
    186 H84         9.2080    5.4200    1.5840 ho        1 MOL      0.362357
    187 O29         7.2530    6.5410   -2.6310 oh        1 MOL     -0.802000
    188 H85         7.4640    5.6360   -2.8630 ho        1 MOL      0.362357
    189 H86         7.3370    7.0270   -3.4610 ho        1 MOL      0.362357
    190 O30         3.9070    6.4410   -0.7430 oh        1 MOL     -0.802000
    191 H87         3.5930    5.7070   -1.2770 ho        1 MOL      0.362357
    192 H88         3.2070    7.0930   -0.7900 ho        1 MOL      0.362357
    193 O31         6.7780    9.1310   -0.7620 oh        1 MOL     -0.802000
    194 H89         6.4830    9.7650   -0.0980 ho        1 MOL      0.362357
    195 H90         7.4390    9.6160   -1.2660 ho        1 MOL      0.362357
@<TRIPOS>BOND
     1    1    2 1   
     2    1    4 1   
     3    1    5 1   
     4    1    6 1   
     5    2    3 2   
     6    2    7 1   
     7    7    8 1   
     8    7   15 1   
     9    8    9 1   
    10    8   11 1   
    11    8   16 1   
    12    9   10 2   
    13    9   19 1   
    14   11   12 1   
    15   11   17 1   
    16   11   18 1   
    17   12   13 1   
    18   12   14 1   
    19   19   20 1   
    20   19   27 1   
    21   20   21 1   
    22   20   23 1   
    23   20   28 1   
    24   21   22 2   
    25   21   38 1   
    26   23   24 1   
    27   23   25 1   
    28   23   29 1   
    29   24   26 1   
    30   24   30 1   
    31   24   31 1   
    32   25   32 1   
    33   25   33 1   
    34   25   34 1   
    35   26   35 1   
    36   26   36 1   
    37   26   37 1   
    38   38   39 1   
    39   38   46 1   
    40   39   40 1   
    41   39   42 1   
    42   39   47 1   
    43   40   41 2   
    44   40   50 1   
    45   42   43 1   
    46   42   48 1   
    47   42   49 1   
    48   43   44 1   
    49   43   45 1   
    50   50   51 1   
    51   50   54 1   
    52   51   52 1   
    53   51   55 1   
    54   51   56 1   
    55   52   53 2   
    56   52   57 1   
    57   57   58 1   
    58   57   65 1   
    59   58   59 1   
    60   58   61 1   
    61   58   66 1   
    62   59   60 2   
    63   59   69 1   
    64   61   62 1   
    65   61   67 1   
    66   61   68 1   
    67   62   63 1   
    68   62   64 1   
    69   69   70 1   
    70   69   73 1   
    71   70   71 1   
    72   70   74 1   
    73   70   75 1   
    74   71   72 2   
    75   71   76 1   
    76   76   77 1   
    77   76   85 1   
    78   77   78 1   
    79   77   80 1   
    80   77   86 1   
    81   78   79 2   
    82   78   93 1   
    83   80   81 1   
    84   80   87 1   
    85   80   88 1   
    86   81   82 1   
    87   81   89 1   
    88   81   90 1   
    89   82   83 1   
    90   82   84 2   
    91   83   91 1   
    92   83   92 1   
    93   93   94 1   
    94   93  100 1   
    95   94   95 1   
    96   94   97 1   
    97   94  101 1   
    98   95   96 2   
    99   95  109 1   
   100   97   98 1   
   101   97   99 1   
   102   97  102 1   
   103   98  103 1   
   104   98  104 1   
   105   98  105 1   
   106   99  106 1   
   107   99  107 1   
   108   99  108 1   
   109  109  110 1   
   110  109  117 1   
   111  110  111 1   
   112  110  113 1   
   113  110  118 1   
   114  111  112 2   
   115  111  123 1   
   116  113  114 1   
   117  113  119 1   
   118  113  120 1   
   119  114  115 1   
   120  114  116 2   
   121  115  121 1   
   122  115  122 1   
   123  123  124 1   
   124  123  135 1   
   125  124  125 1   
   126  124  127 1   
   127  124  136 1   
   128  125  126 2   
   129  125  144 1   
   130  127  128 1   
   131  127  137 1   
   132  127  138 1   
   133  128  129 ar  
   134  128  130 ar  
   135  129  131 ar  
   136  129  139 1   
   137  130  132 ar  
   138  130  140 1   
   139  131  133 ar  
   140  131  141 1   
   141  132  133 ar  
   142  132  142 1   
   143  133  134 1   
   144  134  143 1   
   145  144  145 1   
   146  144  153 1   
   147  145  146 1   
   148  145  148 1   
   149  145  154 1   
   150  146  147 2   
   151  146  159 1   
   152  148  149 1   
   153  148  155 1   
   154  148  156 1   
   155  149  150 1   
   156  149  157 1   
   157  149  158 1   
   158  150  151 1   
   159  150  152 1   
   160  159  160 1   
   161  159  168 1   
   162  160  161 1   
   163  160  163 1   
   164  160  169 1   
   165  161  162 2   
   166  161  174 1   
   167  163  164 1   
   168  163  170 1   
   169  163  171 1   
   170  164  165 1   
   171  164  172 1   
   172  164  173 1   
   173  165  166 1   
   174  165  167 1   
   175  174  175 1   
   176  174  179 1   
   177  175  176 1   
   178  175  177 1   
   179  175  178 1   
   180  181  182 1   
   181  181  183 1   
   182  184  185 1   
   183  184  186 1   
   184  187  188 1   
   185  187  189 1   
   186  190  191 1   
   187  190  192 1   
   188  193  194 1   
   189  193  195 1   
@<TRIPOS>SUBSTRUCTURE
     1 MOL         1 TEMP              0 ****  ****    0 ROOT
