@<TRIPOS>MOLECULE
MOL
  175   173     1     0     0
SMALL
resp


@<TRIPOS>ATOM
      1 C1         -6.7280    8.4040    1.6520 c3        1 MOL     -0.317214
      2 C2         -7.3500    7.4430    0.6750 c         1 MOL      0.689095
      3 O1         -7.3610    7.7780   -0.4420 o         1 MOL     -0.554089
      4 H1         -6.2630    9.2260    1.1070 hc        1 MOL      0.068688
      5 H2         -7.4980    8.7980    2.3160 hc        1 MOL      0.068688
      6 H3         -5.9710    7.8860    2.2410 hc        1 MOL      0.068688
      7 N1         -8.0780    6.3480    1.0420 n         1 MOL     -0.456180
      8 C3         -8.8330    5.3990    0.1530 c3        1 MOL      0.076875
      9 C4         -7.8470    4.4340   -0.5170 c         1 MOL      0.580231
     10 O2         -8.0310    4.1030   -1.6880 o         1 MOL     -0.538797
     11 C5         -9.7640    4.4940    0.9810 c3        1 MOL     -0.278093
     12 C6        -10.5250    3.5170    0.1140 c         1 MOL      0.771802
     13 O3        -11.4750    3.9450   -0.5880 o         1 MOL     -0.736853
     14 O4        -10.3750    2.2980    0.3240 o         1 MOL     -0.736853
     15 H4         -8.2390    6.1820    2.0240 hn        1 MOL      0.234227
     16 H5         -9.3760    5.8890   -0.6540 h1        1 MOL      0.077837
     17 H6        -10.4750    5.1840    1.4330 hc        1 MOL      0.043573
     18 H7         -9.1690    3.9920    1.7450 hc        1 MOL      0.043573
     19 N2         -6.6200    4.0900    0.0600 n         1 MOL     -0.672448
     20 C7         -5.6400    3.3180   -0.6720 c3        1 MOL      0.477805
     21 C8         -4.8830    2.3210    0.2090 c         1 MOL      0.415585
     22 O5         -4.3500    2.7570    1.2640 o         1 MOL     -0.543525
     23 C9         -4.7430    4.2460   -1.4710 c3        1 MOL     -0.432640
     24 H8         -6.4700    4.3070    1.0330 hn        1 MOL      0.286979
     25 H9         -6.1350    2.7400   -1.4560 h1        1 MOL      0.002064
     26 H10        -5.3410    4.9270   -2.0680 hc        1 MOL      0.110273
     27 H11        -4.0580    4.7220   -0.7690 hc        1 MOL      0.110273
     28 H12        -4.0450    3.6180   -2.0290 hc        1 MOL      0.110273
     29 N3         -4.7570    1.0270   -0.0720 n         1 MOL     -0.355933
     30 C10        -5.1520    0.2430   -1.3090 c3        1 MOL      0.131414
     31 C11        -5.5540   -1.1820   -0.8110 c         1 MOL      0.342972
     32 O6         -4.9370   -1.6060    0.1590 o         1 MOL     -0.491017
     33 C12        -4.1750    0.1380   -2.4540 c3        1 MOL     -0.099106
     34 C13        -2.7680   -0.1980   -1.9600 c         1 MOL      0.587942
     35 O7         -2.4170   -1.3690   -2.2830 o         1 MOL     -0.689382
     36 O8         -2.0400    0.5070   -1.3310 o         1 MOL     -0.689382
     37 H13        -4.5290    0.4670    0.7450 hn        1 MOL      0.253968
     38 H14        -6.1430    0.6240   -1.5690 h1        1 MOL     -0.001248
     39 H15        -4.1540    1.0670   -3.0240 hc        1 MOL      0.017608
     40 H16        -4.6770   -0.6310   -3.0550 hc        1 MOL      0.017608
     41 N4         -6.4880   -1.8580   -1.3990 n         1 MOL     -0.223838
     42 C14        -7.0260   -3.1330   -0.9870 c3        1 MOL     -0.086545
     43 C15        -6.6610   -4.3410   -1.8560 c         1 MOL      0.594203
     44 O9         -7.5770   -4.8300   -2.4320 o         1 MOL     -0.583249
     45 H17        -6.9420   -1.3430   -2.1370 hn        1 MOL      0.272749
     46 H18        -8.0950   -3.0100   -0.8130 h1        1 MOL      0.097778
     47 H19        -6.6430   -3.3750   -0.0040 h1        1 MOL      0.097778
     48 N5         -5.4750   -4.8980   -1.9290 n         1 MOL     -0.498089
     49 C16        -4.2570   -4.4700   -1.3440 c3        1 MOL      0.047341
     50 C17        -4.0630   -5.0120    0.1180 c         1 MOL      0.630973
     51 O10        -4.3180   -6.1790    0.4050 o         1 MOL     -0.589722
     52 C18        -3.1560   -4.9680   -2.2770 c3        1 MOL     -0.047702
     53 C19        -1.7940   -4.5070   -1.8810 c         1 MOL      0.400068
     54 N6         -0.8380   -4.9390   -2.6230 n         1 MOL     -0.615698
     55 O11        -1.5080   -3.8820   -0.8790 o         1 MOL     -0.442016
     56 H20        -5.5080   -5.6940   -2.5430 hn        1 MOL      0.294966
     57 H21        -4.2650   -3.3810   -1.4200 h1        1 MOL      0.054266
     58 H22        -3.2060   -4.6410   -3.3190 hc        1 MOL      0.047784
     59 H23        -3.2030   -6.0510   -2.3380 hc        1 MOL      0.047784
     60 H24        -0.9990   -5.6260   -3.3400 hn        1 MOL      0.310235
     61 H25         0.1430   -4.8480   -2.4070 hn        1 MOL      0.310235
     62 N7         -3.6280   -4.1950    1.0430 n         1 MOL     -0.374753
     63 C20        -3.6950   -4.3590    2.5170 c3        1 MOL     -0.093170
     64 C21        -2.2240   -4.5550    3.0620 c         1 MOL      0.418806
     65 O12        -1.9450   -4.5090    4.2490 o         1 MOL     -0.569568
     66 H26        -3.3270   -3.2550    0.8050 hn        1 MOL      0.221937
     67 H27        -4.1010   -5.3220    2.8350 h1        1 MOL      0.097861
     68 H28        -4.3290   -3.6450    3.0290 h1        1 MOL      0.097861
     69 N8         -1.2610   -4.7030    2.1600 n         1 MOL     -0.030229
     70 C22         0.1700   -4.8930    2.3840 c3        1 MOL     -0.025708
     71 C23         0.9670   -3.5970    2.0420 c         1 MOL      0.240383
     72 O13         0.6030   -2.8120    1.1990 o         1 MOL     -0.404335
     73 C24         0.6780   -6.1430    1.5800 c3        1 MOL      0.330427
     74 C25         0.0500   -7.3780    2.2060 c3        1 MOL     -0.316198
     75 O14         0.3420   -6.2260    0.2160 oh        1 MOL     -0.611821
     76 H29        -1.5270   -4.6590    1.1760 hn        1 MOL      0.146992
     77 H30         0.2180   -5.0440    3.4650 h1        1 MOL      0.044386
     78 H31         1.7530   -6.2340    1.7770 h1        1 MOL      0.007905
     79 H32         0.9970   -5.7220   -0.2760 ho        1 MOL      0.425667
     80 H33        -1.0290   -7.3790    2.0140 hc        1 MOL      0.067418
     81 H34         0.5770   -8.2450    1.8170 hc        1 MOL      0.067418
     82 H35         0.2890   -7.4290    3.2720 hc        1 MOL      0.067418
     83 N9          2.0770   -3.3020    2.7130 n         1 MOL     -0.221915
     84 C26         2.8690   -2.0410    2.4520 c3        1 MOL      0.143836
     85 C27         3.9680   -2.4280    1.4260 c         1 MOL      0.185020
     86 O15         4.9090   -3.1290    1.7780 o         1 MOL     -0.519981
     87 C28         3.3730   -1.3300    3.8220 c3        1 MOL      0.199599
     88 C29         4.0390    0.0420    3.5570 c3        1 MOL     -0.090666
     89 C30         2.1310   -1.1960    4.6930 c3        1 MOL     -0.180842
     90 C31         5.4400   -0.0680    2.8500 c3        1 MOL     -0.214008
     91 H36         2.4990   -4.0020    3.3080 hn        1 MOL      0.221521
     92 H37         2.1990   -1.3710    1.9030 h1        1 MOL      0.007538
     93 H38         4.1150   -1.9550    4.3060 hc        1 MOL     -0.022633
     94 H39         4.1290    0.6340    4.4700 hc        1 MOL      0.014273
     95 H40         3.3190    0.5590    2.9180 hc        1 MOL      0.014273
     96 H41         1.4330   -0.4730    4.2660 hc        1 MOL      0.031662
     97 H42         1.7400   -2.2060    4.8230 hc        1 MOL      0.031662
     98 H43         2.4430   -0.9460    5.7080 hc        1 MOL      0.031662
     99 H44         6.0310   -0.9230    3.1990 hc        1 MOL      0.069611
    100 H45         5.2510   -0.1770    1.7860 hc        1 MOL      0.069611
    101 H46         5.9450    0.8700    3.0550 hc        1 MOL      0.069611
    102 N10         3.7730   -2.0800    0.1050 n         1 MOL     -0.036366
    103 C32         4.5670   -2.6300   -1.0750 c3        1 MOL      0.436802
    104 C33         5.6630   -1.7270   -1.5940 c         1 MOL      0.378427
    105 O16         6.2430   -1.9630   -2.7080 o         1 MOL     -0.552538
    106 C34         3.5940   -3.2380   -2.0940 c3        1 MOL     -0.501165
    107 C35         2.3090   -3.7960   -1.6510 c         1 MOL      0.979232
    108 O17         2.3560   -4.8990   -1.0330 o         1 MOL     -0.767990
    109 O18         1.2210   -3.1940   -1.9170 o         1 MOL     -0.767990
    110 H47         2.9830   -1.4900   -0.1050 hn        1 MOL     -0.001553
    111 H48         5.1430   -3.4170   -0.5750 h1        1 MOL     -0.002257
    112 H49         4.1450   -4.0670   -2.5320 hc        1 MOL      0.089007
    113 H50         3.4070   -2.4630   -2.8400 hc        1 MOL      0.089007
    114 N11         5.9930   -0.7270   -0.8090 n         1 MOL     -0.421191
    115 C36         6.9330    0.3850   -1.1410 c3        1 MOL      0.397387
    116 C37         6.3900    1.7630   -0.6440 c         1 MOL      0.189583
    117 O19         5.9520    1.8460    0.5280 o         1 MOL     -0.461628
    118 C38         8.2500    0.1030   -0.3980 c3        1 MOL     -0.216106
    119 C39         9.3490    1.0300   -0.7400 ca        1 MOL      0.099935
    120 C40         9.4820    2.3630   -0.1250 ca        1 MOL     -0.156353
    121 C41        10.2280    0.6720   -1.7050 ca        1 MOL     -0.156353
    122 C42        10.5080    3.2430   -0.5160 ca        1 MOL     -0.122426
    123 C43        11.2680    1.5350   -2.1010 ca        1 MOL     -0.122426
    124 C44        11.3740    2.8660   -1.5890 ca        1 MOL     -0.141074
    125 H51         5.7350   -0.8340    0.1630 hn        1 MOL      0.144841
    126 H52         7.2210    0.3670   -2.1950 h1        1 MOL     -0.013322
    127 H53         8.6870   -0.8340   -0.7450 hc        1 MOL      0.092681
    128 H54         8.0920    0.1980    0.6750 hc        1 MOL      0.092681
    129 H55         8.7890    2.6020    0.6730 ha        1 MOL      0.121779
    130 H56        10.1870   -0.3550   -2.0480 ha        1 MOL      0.121779
    131 H57        10.6210    4.2160   -0.0740 ha        1 MOL      0.111559
    132 H58        11.9830    1.1800   -2.8310 ha        1 MOL      0.111559
    133 H59        12.1770    3.5300   -1.8620 ha        1 MOL      0.116512
    134 N12         6.4340    2.8480   -1.4130 n         1 MOL      0.037991
    135 C45         6.4730    4.2120   -0.8770 c3        1 MOL     -0.142631
    136 C46         5.1770    4.6410   -0.1450 c         1 MOL      0.514537
    137 O20         5.1270    5.7390    0.4450 o         1 MOL     -0.575158
    138 C47         6.7850    5.0500   -2.0440 c3        1 MOL     -0.060104
    139 C48         6.3390    4.2780   -3.2380 c3        1 MOL     -0.031089
    140 C49         6.4640    2.8740   -2.8330 c3        1 MOL     -0.101051
    141 H60         7.2350    4.1930   -0.0980 h1        1 MOL      0.105755
    142 H61         6.3720    6.0580   -2.0270 hc        1 MOL      0.053758
    143 H62         7.8600    5.1970   -2.0830 hc        1 MOL      0.053758
    144 H63         5.3000    4.5210   -3.4540 hc        1 MOL      0.038942
    145 H64         6.9170    4.5370   -4.1320 hc        1 MOL      0.038942
    146 H65         5.7350    2.3110   -3.4210 h1        1 MOL      0.069985
    147 H66         7.4320    2.4930   -3.1690 h1        1 MOL      0.069985
    148 N13         4.0730    3.8970   -0.0870 n         1 MOL     -0.231447
    149 C50         2.8130    4.2740    0.5450 c3        1 MOL     -0.262914
    150 C51         2.8770    4.5880    2.0570 c         1 MOL      0.582779
    151 O21         1.9130    5.0700    2.5950 o         1 MOL     -0.534667
    152 C52         1.8610    3.1100    0.1920 c3        1 MOL     -0.111806
    153 C53         2.2630    1.7860    0.9230 c3        1 MOL     -0.055620
    154 C54         1.3860    0.6290    0.3800 c         1 MOL      0.771958
    155 O22         1.8370   -0.0300   -0.5760 o         1 MOL     -0.708212
    156 O23         0.2660    0.4100    0.8460 o         1 MOL     -0.708212
    157 H67         4.2000    2.9200   -0.3170 hn        1 MOL      0.192212
    158 H68         2.4570    5.1310   -0.0150 h1        1 MOL      0.172491
    159 H69         1.8300    2.9140   -0.8800 hc        1 MOL      0.071600
    160 H70         0.8260    3.3220    0.4720 hc        1 MOL      0.071600
    161 H71         1.9590    1.9420    1.9580 hc        1 MOL      0.033546
    162 H72         3.3170    1.5050    0.8930 hc        1 MOL      0.033546
    163 N14         4.0040    4.3890    2.7690 n         1 MOL     -0.185422
    164 C55         4.2870    4.9270    4.1340 c3        1 MOL     -0.244564
    165 H73         4.6570    5.9490    4.0510 h1        1 MOL      0.104217
    166 H74         3.3710    4.9210    4.7250 h1        1 MOL      0.104217
    167 H75         5.0390    4.3060    4.6210 h1        1 MOL      0.104217
    168 H76         4.6490    3.7700    2.2890 hn        1 MOL      0.196393
    169 Ca1        -0.2940   -1.4790   -0.7950 Ca        1 MOL      1.663096
    170 O24        -2.2770   -1.5540    1.0590 oh        1 MOL     -0.817383
    171 H77        -3.1990   -1.4280    0.8450 ho        1 MOL      0.401747
    172 H78        -2.0920   -0.8930    1.7240 ho        1 MOL      0.401747
    173 O25         0.3520   -0.1900   -3.1100 oh        1 MOL     -0.817383
    174 H79         0.1320    0.7060   -2.8310 ho        1 MOL      0.401747
    175 H80        -0.1170   -0.3110   -3.9250 ho        1 MOL      0.401747
@<TRIPOS>BOND
     1    1    2 1   
     2    1    4 1   
     3    1    5 1   
     4    1    6 1   
     5    2    3 2   
     6    2    7 1   
     7    7    8 1   
     8    7   15 1   
     9    8    9 1   
    10    8   11 1   
    11    8   16 1   
    12    9   10 2   
    13    9   19 1   
    14   11   12 1   
    15   11   17 1   
    16   11   18 1   
    17   12   13 1   
    18   12   14 1   
    19   19   20 1   
    20   19   24 1   
    21   20   21 1   
    22   20   23 1   
    23   20   25 1   
    24   21   22 2   
    25   21   29 1   
    26   23   26 1   
    27   23   27 1   
    28   23   28 1   
    29   29   30 1   
    30   29   37 1   
    31   30   31 1   
    32   30   33 1   
    33   30   38 1   
    34   31   32 2   
    35   31   41 1   
    36   33   34 1   
    37   33   39 1   
    38   33   40 1   
    39   34   35 1   
    40   34   36 1   
    41   41   42 1   
    42   41   45 1   
    43   42   43 1   
    44   42   46 1   
    45   42   47 1   
    46   43   44 2   
    47   43   48 1   
    48   48   49 1   
    49   48   56 1   
    50   49   50 1   
    51   49   52 1   
    52   49   57 1   
    53   50   51 2   
    54   50   62 1   
    55   52   53 1   
    56   52   58 1   
    57   52   59 1   
    58   53   54 1   
    59   53   55 2   
    60   54   60 1   
    61   54   61 1   
    62   62   63 1   
    63   62   66 1   
    64   63   64 1   
    65   63   67 1   
    66   63   68 1   
    67   64   65 2   
    68   64   69 1   
    69   69   70 1   
    70   69   76 1   
    71   70   71 1   
    72   70   73 1   
    73   70   77 1   
    74   71   72 2   
    75   71   83 1   
    76   73   74 1   
    77   73   75 1   
    78   73   78 1   
    79   74   80 1   
    80   74   81 1   
    81   74   82 1   
    82   75   79 1   
    83   83   84 1   
    84   83   91 1   
    85   84   85 1   
    86   84   87 1   
    87   84   92 1   
    88   85   86 2   
    89   85  102 1   
    90   87   88 1   
    91   87   89 1   
    92   87   93 1   
    93   88   90 1   
    94   88   94 1   
    95   88   95 1   
    96   89   96 1   
    97   89   97 1   
    98   89   98 1   
    99   90   99 1   
   100   90  100 1   
   101   90  101 1   
   102  102  103 1   
   103  102  110 1   
   104  103  104 1   
   105  103  106 1   
   106  103  111 1   
   107  104  105 2   
   108  104  114 1   
   109  106  107 1   
   110  106  112 1   
   111  106  113 1   
   112  107  108 1   
   113  107  109 1   
   114  114  115 1   
   115  114  125 1   
   116  115  116 1   
   117  115  118 1   
   118  115  126 1   
   119  116  117 2   
   120  116  134 1   
   121  118  119 1   
   122  118  127 1   
   123  118  128 1   
   124  119  120 ar  
   125  119  121 ar  
   126  120  122 ar  
   127  120  129 1   
   128  121  123 ar  
   129  121  130 1   
   130  122  124 ar  
   131  122  131 1   
   132  123  124 ar  
   133  123  132 1   
   134  124  133 1   
   135  134  135 1   
   136  134  140 1   
   137  135  136 1   
   138  135  138 1   
   139  135  141 1   
   140  136  137 2   
   141  136  148 1   
   142  138  139 1   
   143  138  142 1   
   144  138  143 1   
   145  139  140 1   
   146  139  144 1   
   147  139  145 1   
   148  140  146 1   
   149  140  147 1   
   150  148  149 1   
   151  148  157 1   
   152  149  150 1   
   153  149  152 1   
   154  149  158 1   
   155  150  151 2   
   156  150  163 1   
   157  152  153 1   
   158  152  159 1   
   159  152  160 1   
   160  153  154 1   
   161  153  161 1   
   162  153  162 1   
   163  154  155 1   
   164  154  156 1   
   165  163  164 1   
   166  163  168 1   
   167  164  165 1   
   168  164  166 1   
   169  164  167 1   
   170  170  171 1   
   171  170  172 1   
   172  173  174 1   
   173  173  175 1   
@<TRIPOS>SUBSTRUCTURE
     1 MOL         1 TEMP              0 ****  ****    0 ROOT
