@<TRIPOS>MOLECULE
MOL
  179   176     1     0     0
SMALL
resp


@<TRIPOS>ATOM
      1 C1          2.0280   -3.6560    6.5270 c3        1 MOL     -0.330251
      2 C2          1.9430   -3.7060    4.9800 c         1 MOL      0.704790
      3 O1          1.1450   -4.4050    4.3410 o         1 MOL     -0.611460
      4 H1          1.0290   -3.5140    6.9400 hc        1 MOL      0.092193
      5 H2          2.4440   -4.5910    6.9000 hc        1 MOL      0.092193
      6 H3          2.6670   -2.8260    6.8310 hc        1 MOL      0.092193
      7 N1          2.7700   -2.9420    4.3180 n         1 MOL     -0.475807
      8 C3          2.7480   -2.7770    2.8890 c3        1 MOL     -0.372349
      9 C4          3.4300   -3.9830    2.1730 c         1 MOL      0.755010
     10 O2          4.4490   -4.5230    2.7330 o         1 MOL     -0.542463
     11 C5          3.5360   -1.4760    2.5820 c3        1 MOL      0.269150
     12 C6          3.2780   -0.8350    1.2640 c         1 MOL      0.373553
     13 O3          3.9340    0.1900    0.9420 o         1 MOL     -0.691494
     14 O4          2.3960   -1.2590    0.5190 o         1 MOL     -0.691494
     15 H4          3.4060   -2.4240    4.9150 hn        1 MOL      0.303014
     16 H5          1.7180   -2.6820    2.5500 h1        1 MOL      0.162511
     17 H6          4.5830   -1.7610    2.6370 hc        1 MOL     -0.014435
     18 H7          3.4030   -0.7180    3.3550 hc        1 MOL     -0.014435
     19 N2          2.9020   -4.3460    1.0340 n         1 MOL     -0.469824
     20 C7          3.4790   -5.4010    0.2230 c3        1 MOL     -0.058961
     21 C8          4.6310   -4.9010   -0.6650 c         1 MOL      0.362991
     22 O5          5.7090   -5.5160   -0.5820 o         1 MOL     -0.506613
     23 C9          2.3570   -5.9460   -0.6720 c3        1 MOL      0.347429
     24 C10         2.7080   -7.3520   -1.2110 c3        1 MOL     -0.239066
     25 C11         1.6050   -7.9520   -2.1080 c3        1 MOL      0.059063
     26 C12         1.1610   -7.0330   -3.2260 c3        1 MOL      0.073814
     27 N3          0.1130   -7.4790   -4.1660 n4        1 MOL     -0.194336
     28 H8          2.1170   -3.7920    0.7020 hn        1 MOL      0.238004
     29 H9          3.8300   -6.1680    0.9250 h1        1 MOL      0.110152
     30 H10         2.2260   -5.2890   -1.5270 hc        1 MOL     -0.078604
     31 H11         1.4090   -6.0220   -0.1450 hc        1 MOL     -0.078604
     32 H12         2.7960   -7.9770   -0.3140 hc        1 MOL      0.078079
     33 H13         3.6810   -7.3220   -1.6890 hc        1 MOL      0.078079
     34 H14         0.7220   -8.3120   -1.5740 hc        1 MOL      0.016370
     35 H15         1.9410   -8.8470   -2.6360 hc        1 MOL      0.016370
     36 H16         1.9720   -6.8690   -3.9390 hx        1 MOL      0.039283
     37 H17         0.8250   -6.0830   -2.7930 hx        1 MOL      0.039283
     38 H18         0.1700   -8.4730   -4.3600 hn        1 MOL      0.245260
     39 H19        -0.7900   -7.5160   -3.7050 hn        1 MOL      0.245260
     40 H20         0.0280   -6.9310   -4.9970 hn        1 MOL      0.245260
     41 N4          4.4880   -3.7990   -1.2920 n         1 MOL     -0.161101
     42 C13         5.4890   -3.2860   -2.1940 c3        1 MOL     -0.103748
     43 C14         6.5950   -2.4600   -1.3700 c         1 MOL      0.401593
     44 O6          7.8380   -2.5290   -1.7480 o         1 MOL     -0.524951
     45 C15         4.8020   -2.5130   -3.3050 c3        1 MOL     -0.129035
     46 C16         3.9620   -1.3960   -2.7200 c         1 MOL      0.602345
     47 O7          2.7590   -1.6060   -2.5970 o         1 MOL     -0.707298
     48 O8          4.5310   -0.3690   -2.2230 o         1 MOL     -0.707298
     49 H21         3.6340   -3.2710   -1.1700 hn        1 MOL      0.313442
     50 H22         5.9520   -4.1870   -2.6000 h1        1 MOL      0.114734
     51 H23         4.2020   -3.2660   -3.7970 hc        1 MOL      0.055626
     52 H24         5.5090   -2.1460   -4.0630 hc        1 MOL      0.055626
     53 N5          6.1960   -1.7090   -0.3220 n         1 MOL      0.054244
     54 C17         7.0650   -1.0050    0.5580 c3        1 MOL     -0.346788
     55 C18         7.2070    0.4990    0.4070 c         1 MOL      0.585970
     56 O9          7.8440    1.1570    1.2560 o         1 MOL     -0.566656
     57 H25         5.1980   -1.6700   -0.1710 hn        1 MOL      0.039540
     58 H26         8.0780   -1.3750    0.4810 h1        1 MOL      0.149912
     59 H27         6.7150   -1.0520    1.5900 h1        1 MOL      0.149912
     60 N6          6.5250    1.1190   -0.5740 n         1 MOL     -0.051023
     61 C19         6.7260    2.4720   -1.0320 c3        1 MOL     -0.239621
     62 C20         5.5090    3.3430   -0.8550 c         1 MOL      0.778855
     63 O10         4.4060    2.8410   -0.8470 o         1 MOL     -0.647446
     64 C21         7.2400    2.4480   -2.4970 c3        1 MOL     -0.148039
     65 C22         8.5310    1.5770   -2.7030 c         1 MOL      0.676146
     66 N7          8.5610    0.7680   -3.7470 n         1 MOL     -0.856657
     67 O11         9.4900    1.4770   -1.9320 o         1 MOL     -0.531665
     68 H28         5.8960    0.5460   -1.1090 hn        1 MOL      0.105049
     69 H29         7.4560    3.0000   -0.4080 h1        1 MOL      0.085337
     70 H30         7.5110    3.4560   -2.8110 hc        1 MOL      0.040592
     71 H31         6.4290    2.1110   -3.1400 hc        1 MOL      0.040592
     72 H32         7.7540    0.6100   -4.3380 hn        1 MOL      0.393200
     73 H33         9.3440    0.1350   -3.7320 hn        1 MOL      0.393200
     74 N8          5.5880    4.6880   -0.7950 n         1 MOL     -0.490833
     75 C23         4.4570    5.6400   -0.8500 c3        1 MOL     -0.154411
     76 C24         3.4770    5.4550    0.3300 c         1 MOL      0.645512
     77 O12         3.9220    5.1050    1.4320 o         1 MOL     -0.489286
     78 H34         6.5280    5.0340   -0.6400 hn        1 MOL      0.336680
     79 H35         3.8800    5.5050   -1.7600 h1        1 MOL      0.099203
     80 H36         4.7710    6.6760   -0.7640 h1        1 MOL      0.099203
     81 N9          2.1580    5.5360    0.0040 n         1 MOL     -0.614929
     82 C25         0.9980    4.9760    0.7830 c3        1 MOL      0.131684
     83 C26         1.1370    3.4260    1.1220 c         1 MOL      0.281915
     84 O13         2.0080    2.6780    0.6450 o         1 MOL     -0.303501
     85 C27        -0.2920    5.3490    0.0530 c3        1 MOL     -0.184017
     86 C28        -0.4930    6.8230   -0.2150 ca        1 MOL      0.022996
     87 C29        -0.7500    7.7650    0.7980 ca        1 MOL     -0.088837
     88 C30        -0.6720    7.2650   -1.5540 ca        1 MOL     -0.088837
     89 C31        -0.9280    9.1130    0.5200 ca        1 MOL     -0.327443
     90 C32        -0.7900    8.6670   -1.8920 ca        1 MOL     -0.327443
     91 C33        -0.9510    9.6140   -0.8210 ca        1 MOL      0.392906
     92 O14        -1.1190   10.8920   -1.0870 oh        1 MOL     -0.471874
     93 H37         1.8880    5.8580   -0.9140 hn        1 MOL      0.308131
     94 H38         0.9780    5.4370    1.7690 h1        1 MOL      0.090883
     95 H39        -1.2070    5.0490    0.5710 hc        1 MOL      0.070192
     96 H40        -0.2210    4.8860   -0.9350 hc        1 MOL      0.070192
     97 H41        -0.6130    7.4900    1.8410 ha        1 MOL      0.116773
     98 H42        -0.5920    6.6070   -2.4110 ha        1 MOL      0.116773
     99 H43        -1.2150    9.7980    1.2950 ha        1 MOL      0.168688
    100 H44        -0.7810    9.0860   -2.8860 ha        1 MOL      0.168688
    101 H45        -1.0510   11.4700   -0.3370 ho        1 MOL      0.382127
    102 N10         0.1180    3.0090    1.9310 n         1 MOL     -0.528442
    103 C34        -0.0720    1.6600    2.5410 c3        1 MOL     -0.061886
    104 C35        -0.4080    0.5700    1.3990 c         1 MOL      0.563250
    105 O15         0.2020    0.5500    0.3540 o         1 MOL     -0.470464
    106 C36         1.1370    1.3690    3.4960 c3        1 MOL      0.262902
    107 C37         0.7750    0.1370    4.3920 c3        1 MOL     -0.038726
    108 C38         1.5790    2.6040    4.3150 c3        1 MOL     -0.268872
    109 C39        -0.2030    0.3010    5.5660 c3        1 MOL     -0.396695
    110 H46        -0.5540    3.6810    2.2680 hn        1 MOL      0.338715
    111 H47        -0.9450    1.7510    3.1950 h1        1 MOL      0.089161
    112 H48         1.9940    1.1980    2.8390 hc        1 MOL      0.057792
    113 H49         1.7230   -0.1770    4.8460 hc        1 MOL      0.042794
    114 H50         0.5090   -0.7420    3.7900 hc        1 MOL      0.042794
    115 H51         2.0370    3.3680    3.6740 hc        1 MOL      0.074061
    116 H52         0.7270    3.0770    4.7900 hc        1 MOL      0.074061
    117 H53         2.3760    2.4080    5.0180 hc        1 MOL      0.074061
    118 H54        -0.0480   -0.5720    6.2090 hc        1 MOL      0.101068
    119 H55         0.0940    1.1270    6.2140 hc        1 MOL      0.101068
    120 H56        -1.1950    0.4330    5.1320 hc        1 MOL      0.101068
    121 N11        -1.4440   -0.3040    1.5830 n         1 MOL     -0.595582
    122 C40        -1.7370   -1.4280    0.6480 c3        1 MOL      0.106531
    123 C41        -3.1910   -1.4980    0.2290 c         1 MOL      0.668288
    124 O16        -3.4110   -2.1480   -0.8200 o         1 MOL     -0.592802
    125 C42        -1.3270   -2.7530    1.2370 c3        1 MOL      0.283453
    126 O17        -2.1500   -3.0020    2.3490 oh        1 MOL     -0.651234
    127 H57        -1.9300   -0.2410    2.4700 hn        1 MOL      0.322630
    128 H58        -1.0960   -1.2840   -0.2160 h1        1 MOL      0.008020
    129 H59        -0.2850   -2.7550    1.5690 h1        1 MOL     -0.004956
    130 H60        -1.4220   -3.5810    0.5470 h1        1 MOL     -0.004956
    131 H61        -1.7660   -3.7350    2.8230 ho        1 MOL      0.423893
    132 N12        -4.1780   -0.8990    0.8770 n         1 MOL     -0.542247
    133 C43        -5.6330   -0.9340    0.4360 c3        1 MOL      0.031868
    134 C44        -5.8520   -0.2980   -0.9850 c         1 MOL      0.612657
    135 O18        -5.0110    0.4440   -1.4330 o         1 MOL     -0.569129
    136 C45        -6.3520   -0.0930    1.5000 c3        1 MOL     -0.256871
    137 H62        -3.8610   -0.3520    1.6690 hn        1 MOL      0.291213
    138 H63        -5.9860   -1.9650    0.4010 h1        1 MOL      0.116047
    139 H64        -6.4250   -0.6120    2.4640 hc        1 MOL      0.084319
    140 H65        -5.8480    0.8510    1.7180 hc        1 MOL      0.084319
    141 H66        -7.3790   -0.0690    1.1430 hc        1 MOL      0.084319
    142 N13        -6.8420   -0.7210   -1.7540 n         1 MOL     -0.585185
    143 C46        -7.9660   -1.6010   -1.4540 c3        1 MOL      0.298500
    144 C47        -9.2260   -1.0080   -2.0480 c         1 MOL      0.280610
    145 O19        -9.2190   -0.5280   -3.1690 o         1 MOL     -0.499466
    146 C48        -7.7160   -2.9780   -2.1450 c3        1 MOL     -0.158508
    147 H67        -6.8060   -0.4040   -2.7090 hn        1 MOL      0.336619
    148 H68        -7.9750   -1.7910   -0.3780 h1        1 MOL      0.021752
    149 H69        -8.5360   -3.6880   -1.9720 hc        1 MOL      0.042824
    150 H70        -7.5030   -2.8810   -3.2070 hc        1 MOL      0.042824
    151 H71        -6.9410   -3.4920   -1.5850 hc        1 MOL      0.042824
    152 N14       -10.3520   -1.0330   -1.3130 n         1 MOL     -0.033381
    153 C49       -10.6790   -1.4980   -0.0080 c3        1 MOL     -0.494717
    154 C50       -10.2010   -0.4530    1.0490 c         1 MOL      0.762648
    155 O20        -9.9800   -0.7320    2.1840 o         1 MOL     -0.576853
    156 C51       -12.2040   -1.8900    0.0820 c3        1 MOL     -0.061693
    157 C52       -13.0880   -0.6860    0.0550 c3        1 MOL     -0.093656
    158 C53       -13.2780   -0.1830   -1.3880 c         1 MOL      0.732365
    159 O21       -14.2500   -0.5920   -1.9970 o         1 MOL     -0.654354
    160 O22       -12.5050    0.6510   -1.8960 o         1 MOL     -0.654354
    161 H72       -11.1630   -0.6480   -1.7750 hn        1 MOL      0.173774
    162 H73       -10.1610   -2.4470    0.0910 h1        1 MOL      0.125025
    163 H74       -12.3640   -2.4260    1.0180 hc        1 MOL      0.073559
    164 H75       -12.4800   -2.5760   -0.7130 hc        1 MOL      0.073559
    165 H76       -12.7900    0.1890    0.6390 hc        1 MOL      0.008936
    166 H77       -14.0280   -0.9540    0.5160 hc        1 MOL      0.008936
    167 N15        -9.9360    0.8070    0.5790 n         1 MOL     -0.253733
    168 C54        -9.7760    2.0540    1.2730 c3        1 MOL     -0.370224
    169 H78       -10.7280    2.3480    1.7150 h1        1 MOL      0.132388
    170 H79        -9.0310    1.9390    2.0610 h1        1 MOL      0.132388
    171 H80        -9.4490    2.8220    0.5730 h1        1 MOL      0.132388
    172 H81       -10.0060    0.9770   -0.4140 hn        1 MOL      0.218558
    173 Ca1         2.4550    0.8320   -1.2270 Ca        1 MOL      1.780020
    174 O23         0.4930   -0.0170   -2.7800 oh        1 MOL     -0.836967
    175 H82        -0.4150   -0.0510   -2.4720 ho        1 MOL      0.421811
    176 H83         0.5280   -0.6550   -3.4920 ho        1 MOL      0.421811
    177 O24         0.5340    2.7130   -2.0020 oh        1 MOL     -0.836967
    178 H84         0.4490    3.2770   -2.7720 ho        1 MOL      0.421811
    179 H85        -0.2830    2.8340   -1.5190 ho        1 MOL      0.421811
@<TRIPOS>BOND
     1    1    2 1   
     2    1    4 1   
     3    1    5 1   
     4    1    6 1   
     5    2    3 2   
     6    2    7 1   
     7    7    8 1   
     8    7   15 1   
     9    8    9 1   
    10    8   11 1   
    11    8   16 1   
    12    9   10 2   
    13    9   19 1   
    14   11   12 1   
    15   11   17 1   
    16   11   18 1   
    17   12   13 1   
    18   12   14 1   
    19   19   20 1   
    20   19   28 1   
    21   20   21 1   
    22   20   23 1   
    23   20   29 1   
    24   21   22 2   
    25   21   41 1   
    26   23   24 1   
    27   23   30 1   
    28   23   31 1   
    29   24   25 1   
    30   24   32 1   
    31   24   33 1   
    32   25   26 1   
    33   25   34 1   
    34   25   35 1   
    35   26   27 1   
    36   26   36 1   
    37   26   37 1   
    38   27   38 1   
    39   27   39 1   
    40   27   40 1   
    41   41   42 1   
    42   41   49 1   
    43   42   43 1   
    44   42   45 1   
    45   42   50 1   
    46   43   44 2   
    47   43   53 1   
    48   45   46 1   
    49   45   51 1   
    50   45   52 1   
    51   46   47 1   
    52   46   48 1   
    53   53   54 1   
    54   53   57 1   
    55   54   55 1   
    56   54   58 1   
    57   54   59 1   
    58   55   56 2   
    59   55   60 1   
    60   60   61 1   
    61   60   68 1   
    62   61   62 1   
    63   61   64 1   
    64   61   69 1   
    65   62   63 2   
    66   62   74 1   
    67   64   65 1   
    68   64   70 1   
    69   64   71 1   
    70   65   66 1   
    71   65   67 2   
    72   66   72 1   
    73   66   73 1   
    74   74   75 1   
    75   74   78 1   
    76   75   76 1   
    77   75   79 1   
    78   75   80 1   
    79   76   77 2   
    80   76   81 1   
    81   81   82 1   
    82   81   93 1   
    83   82   83 1   
    84   82   85 1   
    85   82   94 1   
    86   83   84 2   
    87   83  102 1   
    88   85   86 1   
    89   85   95 1   
    90   85   96 1   
    91   86   87 ar  
    92   86   88 ar  
    93   87   89 ar  
    94   87   97 1   
    95   88   90 ar  
    96   88   98 1   
    97   89   91 ar  
    98   89   99 1   
    99   90   91 ar  
   100   90  100 1   
   101   91   92 1   
   102   92  101 1   
   103  102  103 1   
   104  102  110 1   
   105  103  104 1   
   106  103  106 1   
   107  103  111 1   
   108  104  105 2   
   109  104  121 1   
   110  106  107 1   
   111  106  108 1   
   112  106  112 1   
   113  107  109 1   
   114  107  113 1   
   115  107  114 1   
   116  108  115 1   
   117  108  116 1   
   118  108  117 1   
   119  109  118 1   
   120  109  119 1   
   121  109  120 1   
   122  121  122 1   
   123  121  127 1   
   124  122  123 1   
   125  122  125 1   
   126  122  128 1   
   127  123  124 2   
   128  123  132 1   
   129  125  126 1   
   130  125  129 1   
   131  125  130 1   
   132  126  131 1   
   133  132  133 1   
   134  132  137 1   
   135  133  134 1   
   136  133  136 1   
   137  133  138 1   
   138  134  135 2   
   139  134  142 1   
   140  136  139 1   
   141  136  140 1   
   142  136  141 1   
   143  142  143 1   
   144  142  147 1   
   145  143  144 1   
   146  143  146 1   
   147  143  148 1   
   148  144  145 2   
   149  144  152 1   
   150  146  149 1   
   151  146  150 1   
   152  146  151 1   
   153  152  153 1   
   154  152  161 1   
   155  153  154 1   
   156  153  156 1   
   157  153  162 1   
   158  154  155 2   
   159  154  167 1   
   160  156  157 1   
   161  156  163 1   
   162  156  164 1   
   163  157  158 1   
   164  157  165 1   
   165  157  166 1   
   166  158  159 1   
   167  158  160 1   
   168  167  168 1   
   169  167  172 1   
   170  168  169 1   
   171  168  170 1   
   172  168  171 1   
   173  174  175 1   
   174  174  176 1   
   175  177  178 1   
   176  177  179 1   
@<TRIPOS>SUBSTRUCTURE
     1 MOL         1 TEMP              0 ****  ****    0 ROOT
