@<TRIPOS>MOLECULE
MOL
  189   185     1     0     0
SMALL
resp


@<TRIPOS>ATOM
      1 C1          4.1630    3.5430   -3.8750 c3        1 MOL     -0.585227
      2 C2          4.9890    2.9200   -2.7200 c         1 MOL      0.805783
      3 O1          4.5290    2.7550   -1.6030 o         1 MOL     -0.615648
      4 H1          3.1800    3.0750   -3.9120 hc        1 MOL      0.138409
      5 H2          4.0500    4.6130   -3.7040 hc        1 MOL      0.138409
      6 H3          4.6780    3.3780   -4.8210 hc        1 MOL      0.138409
      7 N1          6.1770    2.6140   -3.0060 n         1 MOL     -0.512757
      8 C3          7.0430    1.5520   -2.3680 c3        1 MOL      0.046265
      9 C4          6.2180    0.3860   -1.7440 c         1 MOL      0.463579
     10 O2          5.9800    0.2540   -0.5580 o         1 MOL     -0.522577
     11 C5          8.0330    2.1480   -1.3040 c3        1 MOL     -0.211888
     12 C6          7.4360    3.2290   -0.4100 c         1 MOL      0.790878
     13 O3          6.6940    2.8390    0.4880 o         1 MOL     -0.747499
     14 O4          7.6650    4.4260   -0.6730 o         1 MOL     -0.747499
     15 H4          6.3870    2.8290   -3.9730 hn        1 MOL      0.283385
     16 H5          7.5580    1.1700   -3.2510 h1        1 MOL      0.046994
     17 H6          8.9500    2.5880   -1.7000 hc        1 MOL      0.051650
     18 H7          8.5600    1.3200   -0.8210 hc        1 MOL      0.051650
     19 N2          5.7370   -0.3940   -2.6460 n         1 MOL     -0.371816
     20 C7          4.9300   -1.6020   -2.7160 c3        1 MOL      0.065238
     21 C8          5.4790   -2.8030   -1.8940 c         1 MOL      0.333052
     22 O5          5.6230   -3.8910   -2.4180 o         1 MOL     -0.556303
     23 C9          3.3810   -1.4900   -2.4760 c3        1 MOL      0.149724
     24 C10         2.4820   -2.6440   -2.9040 c3        1 MOL     -0.095606
     25 C11         2.8650   -0.1120   -2.9550 c3        1 MOL     -0.256138
     26 C12         2.4790   -2.9200   -4.3780 c3        1 MOL     -0.058324
     27 H8          6.0130   -0.0570   -3.5540 hn        1 MOL      0.232244
     28 H9          4.9520   -2.0090   -3.7280 h1        1 MOL      0.049408
     29 H10         3.1450   -1.5230   -1.4120 hc        1 MOL     -0.052630
     30 H11         1.4830   -2.4260   -2.5240 hc        1 MOL      0.056221
     31 H12         2.7360   -3.5330   -2.3310 hc        1 MOL      0.056221
     32 H13         3.1930    0.5940   -2.1950 hc        1 MOL      0.049792
     33 H14         3.2590    0.2550   -3.9040 hc        1 MOL      0.049792
     34 H15         1.7900   -0.2710   -2.9840 hc        1 MOL      0.049792
     35 H16         1.7240   -3.6600   -4.6340 hc        1 MOL      0.003448
     36 H17         2.3650   -2.0210   -4.9840 hc        1 MOL      0.003448
     37 H18         3.4290   -3.2590   -4.7610 hc        1 MOL      0.003448
     38 N3          5.7930   -2.6090   -0.6210 n         1 MOL     -0.046170
     39 C13         6.5800   -3.5990    0.1740 c3        1 MOL     -0.009730
     40 C14         5.8440   -4.8960    0.6770 c         1 MOL      0.616552
     41 O6          6.4340   -5.9440    0.5400 o         1 MOL     -0.593393
     42 C15         7.1740   -2.8920    1.4280 c3        1 MOL     -0.235905
     43 C16         8.1700   -1.7610    1.0450 c         1 MOL      0.713534
     44 O7          8.2940   -0.8450    1.9020 o         1 MOL     -0.700462
     45 O8          8.8310   -1.8650   -0.0460 o         1 MOL     -0.700462
     46 H19         5.6650   -1.6640   -0.2860 hn        1 MOL      0.234147
     47 H20         7.4150   -3.9030   -0.4530 h1        1 MOL      0.071793
     48 H21         7.6980   -3.6070    2.0720 hc        1 MOL      0.060677
     49 H22         6.3660   -2.4980    2.0380 hc        1 MOL      0.060677
     50 N4          4.6040   -4.9070    1.1910 n         1 MOL     -0.585351
     51 C17         3.8330   -3.7250    1.6230 c3        1 MOL      0.113426
     52 C18         3.9680   -3.2890    3.0680 c         1 MOL      0.542484
     53 O9          4.5680   -3.9910    3.8370 o         1 MOL     -0.580179
     54 H23         4.2090   -5.7960    1.4330 hn        1 MOL      0.315944
     55 H24         2.7880   -3.9860    1.4610 h1        1 MOL      0.032241
     56 H25         4.0350   -2.8950    0.9430 h1        1 MOL      0.032241
     57 N5          3.3200   -2.2760    3.5340 n         1 MOL     -0.381876
     58 C19         2.2000   -1.5770    2.8420 c3        1 MOL      0.003944
     59 C20         2.4200   -0.9990    1.4570 c         1 MOL     -0.027725
     60 O10         3.5000   -0.5170    1.0900 o         1 MOL     -0.419266
     61 C21         1.7330   -0.4630    3.8300 c3        1 MOL     -0.160463
     62 C22         2.8850    0.4990    3.9760 c         1 MOL      0.747566
     63 O11         3.7010    0.2920    4.9400 o         1 MOL     -0.725991
     64 O12         2.9350    1.5370    3.2480 o         1 MOL     -0.725991
     65 H26         3.3480   -2.0390    4.5130 hn        1 MOL      0.293912
     66 H27         1.2770   -2.1440    2.8500 h1        1 MOL      0.012837
     67 H28         1.3970   -0.7780    4.8180 hc        1 MOL      0.076141
     68 H29         0.9810    0.1430    3.3310 hc        1 MOL      0.076141
     69 N6          1.3920   -1.0010    0.6390 n         1 MOL      0.039106
     70 C23        -0.0140   -1.4490    0.7980 c3        1 MOL      0.043304
     71 C24        -0.4410   -2.8020    0.2930 c         1 MOL      0.573704
     72 O13         0.2990   -3.4300   -0.4880 o         1 MOL     -0.543984
     73 H30         1.5830   -0.5040   -0.2260 hn        1 MOL      0.177581
     74 H31        -0.6270   -0.7340    0.2490 h1        1 MOL      0.051101
     75 H32        -0.3680   -1.1950    1.7910 h1        1 MOL      0.051101
     76 N7         -1.6300   -3.2630    0.7490 n         1 MOL     -0.509174
     77 C25        -2.2240   -4.4680    0.1550 c3        1 MOL      0.059922
     78 C26        -3.1070   -4.2470   -1.0900 c         1 MOL      0.403850
     79 O14        -3.5120   -5.2310   -1.7160 o         1 MOL     -0.542042
     80 C27        -2.9130   -5.2750    1.2560 c3        1 MOL      0.035747
     81 C28        -4.1240   -4.6630    1.9270 c3        1 MOL     -0.118462
     82 C29        -5.3940   -4.2060    1.1520 c         1 MOL      0.304468
     83 N8         -6.3920   -5.0870    0.9860 n         1 MOL     -0.538318
     84 O15        -5.4630   -3.0350    0.6670 o         1 MOL     -0.508283
     85 H33        -2.0490   -2.8720    1.5710 hn        1 MOL      0.277528
     86 H34        -1.3870   -5.1260   -0.0980 h1        1 MOL      0.109015
     87 H35        -2.2170   -5.6260    2.0150 hc        1 MOL      0.014579
     88 H36        -3.1690   -6.1570    0.6730 hc        1 MOL      0.014579
     89 H37        -3.8050   -3.7900    2.5020 hc        1 MOL      0.062539
     90 H38        -4.4600   -5.4030    2.6460 hc        1 MOL      0.062539
     91 H39        -6.3100   -5.9580    1.4930 hn        1 MOL      0.313210
     92 H40        -7.2180   -4.6910    0.5560 hn        1 MOL      0.313210
     93 N9         -3.2040   -3.0460   -1.5610 n         1 MOL     -0.102503
     94 C30        -3.7040   -2.7440   -2.9560 c3        1 MOL     -0.178951
     95 C31        -5.1210   -2.2580   -3.1170 c         1 MOL      0.393316
     96 O16        -5.5470   -2.2110   -4.2770 o         1 MOL     -0.520940
     97 C32        -2.7140   -1.7660   -3.5480 c3        1 MOL      0.313216
     98 C33        -1.2750   -2.2350   -3.5710 c3        1 MOL     -0.090932
     99 C34        -2.8070   -0.3290   -3.1020 c3        1 MOL     -0.090932
    100 H41        -2.8530   -2.2150   -1.1070 hn        1 MOL      0.114562
    101 H42        -3.7320   -3.6840   -3.5040 h1        1 MOL      0.133660
    102 H43        -3.0150   -1.7270   -4.5920 hc        1 MOL     -0.042567
    103 H44        -1.3560   -3.1170   -4.2110 hc        1 MOL      0.004828
    104 H45        -0.7120   -1.4490   -4.0660 hc        1 MOL      0.004828
    105 H46        -0.9240   -2.3750   -2.5490 hc        1 MOL      0.004828
    106 H47        -3.8170   -0.0220   -2.8160 hc        1 MOL      0.004828
    107 H48        -2.0310   -0.0900   -2.3710 hc        1 MOL      0.004828
    108 H49        -2.5090    0.3400   -3.9110 hc        1 MOL      0.004828
    109 N10        -5.8680   -1.9440   -2.0120 n         1 MOL     -0.214592
    110 C35        -7.1620   -1.2950   -2.0460 c3        1 MOL      0.012394
    111 C36        -7.1010    0.2130   -1.6510 c         1 MOL      0.591271
    112 O17        -7.9880    0.9470   -2.1400 o         1 MOL     -0.565174
    113 C37        -8.1260   -1.9860   -1.0790 c3        1 MOL     -0.186578
    114 C38        -8.5700   -3.3940   -1.3130 c         1 MOL      0.683582
    115 N11        -8.8580   -3.8660   -2.4900 n         1 MOL     -0.772125
    116 O18        -8.6850   -4.1180   -0.3620 o         1 MOL     -0.589224
    117 H50        -5.3890   -1.9750   -1.1310 hn        1 MOL      0.299022
    118 H51        -7.6090   -1.3160   -3.0350 h1        1 MOL      0.049618
    119 H52        -9.0630   -1.4330   -1.0540 hc        1 MOL      0.055307
    120 H53        -7.6850   -2.0550   -0.0820 hc        1 MOL      0.055307
    121 H54        -9.0050   -3.2310   -3.2600 hn        1 MOL      0.366642
    122 H55        -9.1270   -4.8390   -2.4980 hn        1 MOL      0.366642
    123 N12        -6.1130    0.6950   -0.8470 n         1 MOL     -0.437640
    124 C39        -6.1250    2.0060   -0.1760 c3        1 MOL      0.337975
    125 C40        -4.8410    2.8080   -0.1100 c         1 MOL      0.236414
    126 O19        -3.7670    2.2300    0.1010 o         1 MOL     -0.336441
    127 C41        -6.8660    1.9140    1.1980 c3        1 MOL     -0.048912
    128 C42        -6.3610    0.9960    2.2500 ca        1 MOL      0.353936
    129 C43        -7.0700   -0.1440    2.5580 ca        1 MOL     -0.381513
    130 C44        -5.1850    1.3070    2.9160 ca        1 MOL     -0.381513
    131 C45        -6.4430   -1.0940    3.4220 ca        1 MOL      0.017063
    132 C46        -4.6380    0.3990    3.9230 ca        1 MOL      0.017063
    133 C47        -5.2870   -0.8430    4.1110 ca        1 MOL     -0.003376
    134 O20        -4.5380   -1.6840    4.8690 oh        1 MOL     -0.383376
    135 H56        -5.4480    0.0770   -0.4000 hn        1 MOL      0.158821
    136 H57        -6.7690    2.6300   -0.8070 h1        1 MOL     -0.018370
    137 H58        -7.9050    1.6520    0.9860 hc        1 MOL      0.003062
    138 H59        -6.8680    2.8730    1.7050 hc        1 MOL      0.003062
    139 H60        -7.9490   -0.5300    2.0600 ha        1 MOL      0.126219
    140 H61        -4.6280    2.1970    2.6320 ha        1 MOL      0.126219
    141 H62        -6.8150   -2.1060    3.5100 ha        1 MOL      0.110113
    142 H63        -3.6830    0.6340    4.3580 ha        1 MOL      0.110113
    143 H64        -4.8640   -2.5630    5.0810 ho        1 MOL      0.308026
    144 N13        -4.8760    4.1590   -0.0190 n         1 MOL     -0.428370
    145 C48        -3.7790    5.0070    0.5120 c3        1 MOL     -0.154084
    146 C49        -2.4770    5.0250   -0.2300 c         1 MOL      0.301667
    147 O21        -1.7220    6.0330   -0.0990 o         1 MOL     -0.492542
    148 C50        -3.6380    4.8640    2.0100 c3        1 MOL      0.172981
    149 C51        -4.8760    5.1390    2.8220 c3        1 MOL     -0.094720
    150 C52        -4.5940    5.1970    4.3250 c         1 MOL      0.591236
    151 O22        -5.0720    6.1550    4.9910 o         1 MOL     -0.686428
    152 O23        -3.8480    4.2910    4.8090 o         1 MOL     -0.686428
    153 H65        -5.7790    4.5750    0.1340 hn        1 MOL      0.287919
    154 H66        -4.2860    5.9610    0.3870 h1        1 MOL      0.107673
    155 H67        -2.8810    5.5860    2.3230 hc        1 MOL      0.052668
    156 H68        -3.1640    3.9110    2.1860 hc        1 MOL      0.052668
    157 H69        -5.6050    4.3400    2.6580 hc        1 MOL     -0.022664
    158 H70        -5.3660    6.0070    2.3720 hc        1 MOL     -0.022664
    159 N14        -2.0670    4.0240   -1.0270 n         1 MOL     -0.010746
    160 C53        -0.9590    4.0650   -2.0310 c3        1 MOL     -0.379723
    161 C54        -1.1950    4.8310   -3.2960 c         1 MOL      0.486528
    162 O24        -0.2410    5.1770   -4.0100 o         1 MOL     -0.525825
    163 C55        -0.4970    2.6240   -2.2710 c3        1 MOL      0.038985
    164 C56        -0.1680    1.7480   -1.0150 c3        1 MOL     -0.186815
    165 C57         0.8000    2.3240    0.0150 c         1 MOL      0.597492
    166 O25         0.3770    2.9770    0.9390 o         1 MOL     -0.580336
    167 O26         2.0330    2.0140    0.0170 o         1 MOL     -0.580336
    168 H71        -2.4770    3.1110   -1.0030 hn        1 MOL      0.157129
    169 H72        -0.1470    4.6690   -1.5980 h1        1 MOL      0.252376
    170 H73         0.3550    2.5890   -2.9530 hc        1 MOL      0.041031
    171 H74        -1.3300    2.2470   -2.8630 hc        1 MOL      0.041031
    172 H75         0.1470    0.7360   -1.2850 hc        1 MOL     -0.004757
    173 H76        -1.1480    1.7090   -0.5320 hc        1 MOL     -0.004757
    174 N15        -2.4390    5.2970   -3.5410 n         1 MOL     -0.210274
    175 C58        -2.9440    6.1660   -4.5780 c3        1 MOL     -0.137527
    176 H77        -3.9920    5.9330   -4.7670 h1        1 MOL      0.069745
    177 H78        -2.8540    7.2040   -4.2580 h1        1 MOL      0.069745
    178 H79        -2.3680    6.0140   -5.4910 h1        1 MOL      0.069745
    179 H80        -3.0530    5.0360   -2.7850 hn        1 MOL      0.188483
    180 Ca1         4.3350    1.9490    1.0090 Ca        1 MOL      1.784572
    181 O27         3.5160    4.5690    0.7950 oh        1 MOL     -0.874175
    182 H81         4.2360    5.1100    0.4900 ho        1 MOL      0.410078
    183 H82         2.8180    5.1880    1.0010 ho        1 MOL      0.410078
    184 O28         4.9730    3.1590    3.5680 oh        1 MOL     -0.874175
    185 H83         5.6420    2.8440    4.1790 ho        1 MOL      0.410078
    186 H84         4.1730    2.6870    3.8260 ho        1 MOL      0.410078
    187 O29         6.1110    0.3250    2.5920 oh        1 MOL     -0.874175
    188 H85         6.0620    0.1010    3.5180 ho        1 MOL      0.410078
    189 H86         6.8170   -0.2150    2.2430 ho        1 MOL      0.410078
@<TRIPOS>BOND
     1    1    2 1   
     2    1    4 1   
     3    1    5 1   
     4    1    6 1   
     5    2    3 2   
     6    2    7 1   
     7    7    8 1   
     8    7   15 1   
     9    8    9 1   
    10    8   11 1   
    11    8   16 1   
    12    9   10 2   
    13    9   19 1   
    14   11   12 1   
    15   11   17 1   
    16   11   18 1   
    17   12   13 1   
    18   12   14 1   
    19   19   20 1   
    20   19   27 1   
    21   20   21 1   
    22   20   23 1   
    23   20   28 1   
    24   21   22 2   
    25   21   38 1   
    26   23   24 1   
    27   23   25 1   
    28   23   29 1   
    29   24   26 1   
    30   24   30 1   
    31   24   31 1   
    32   25   32 1   
    33   25   33 1   
    34   25   34 1   
    35   26   35 1   
    36   26   36 1   
    37   26   37 1   
    38   38   39 1   
    39   38   46 1   
    40   39   40 1   
    41   39   42 1   
    42   39   47 1   
    43   40   41 2   
    44   40   50 1   
    45   42   43 1   
    46   42   48 1   
    47   42   49 1   
    48   43   44 1   
    49   43   45 1   
    50   50   51 1   
    51   50   54 1   
    52   51   52 1   
    53   51   55 1   
    54   51   56 1   
    55   52   53 2   
    56   52   57 1   
    57   57   58 1   
    58   57   65 1   
    59   58   59 1   
    60   58   61 1   
    61   58   66 1   
    62   59   60 2   
    63   59   69 1   
    64   61   62 1   
    65   61   67 1   
    66   61   68 1   
    67   62   63 1   
    68   62   64 1   
    69   69   70 1   
    70   69   73 1   
    71   70   71 1   
    72   70   74 1   
    73   70   75 1   
    74   71   72 2   
    75   71   76 1   
    76   76   77 1   
    77   76   85 1   
    78   77   78 1   
    79   77   80 1   
    80   77   86 1   
    81   78   79 2   
    82   78   93 1   
    83   80   81 1   
    84   80   87 1   
    85   80   88 1   
    86   81   82 1   
    87   81   89 1   
    88   81   90 1   
    89   82   83 1   
    90   82   84 2   
    91   83   91 1   
    92   83   92 1   
    93   93   94 1   
    94   93  100 1   
    95   94   95 1   
    96   94   97 1   
    97   94  101 1   
    98   95   96 2   
    99   95  109 1   
   100   97   98 1   
   101   97   99 1   
   102   97  102 1   
   103   98  103 1   
   104   98  104 1   
   105   98  105 1   
   106   99  106 1   
   107   99  107 1   
   108   99  108 1   
   109  109  110 1   
   110  109  117 1   
   111  110  111 1   
   112  110  113 1   
   113  110  118 1   
   114  111  112 2   
   115  111  123 1   
   116  113  114 1   
   117  113  119 1   
   118  113  120 1   
   119  114  115 1   
   120  114  116 2   
   121  115  121 1   
   122  115  122 1   
   123  123  124 1   
   124  123  135 1   
   125  124  125 1   
   126  124  127 1   
   127  124  136 1   
   128  125  126 2   
   129  125  144 1   
   130  127  128 1   
   131  127  137 1   
   132  127  138 1   
   133  128  129 ar  
   134  128  130 ar  
   135  129  131 ar  
   136  129  139 1   
   137  130  132 ar  
   138  130  140 1   
   139  131  133 ar  
   140  131  141 1   
   141  132  133 ar  
   142  132  142 1   
   143  133  134 1   
   144  134  143 1   
   145  144  145 1   
   146  144  153 1   
   147  145  146 1   
   148  145  148 1   
   149  145  154 1   
   150  146  147 2   
   151  146  159 1   
   152  148  149 1   
   153  148  155 1   
   154  148  156 1   
   155  149  150 1   
   156  149  157 1   
   157  149  158 1   
   158  150  151 1   
   159  150  152 1   
   160  159  160 1   
   161  159  168 1   
   162  160  161 1   
   163  160  163 1   
   164  160  169 1   
   165  161  162 2   
   166  161  174 1   
   167  163  164 1   
   168  163  170 1   
   169  163  171 1   
   170  164  165 1   
   171  164  172 1   
   172  164  173 1   
   173  165  166 1   
   174  165  167 1   
   175  174  175 1   
   176  174  179 1   
   177  175  176 1   
   178  175  177 1   
   179  175  178 1   
   180  181  182 1   
   181  181  183 1   
   182  184  185 1   
   183  184  186 1   
   184  187  188 1   
   185  187  189 1   
@<TRIPOS>SUBSTRUCTURE
     1 MOL         1 TEMP              0 ****  ****    0 ROOT
