@<TRIPOS>MOLECULE
MOL
  192   187     1     0     0
SMALL
resp


@<TRIPOS>ATOM
      1 C1         -5.6090    6.8580   -0.3420 c3        1 MOL     -0.366107
      2 C2         -5.1040    5.4140    0.1480 c         1 MOL      0.569128
      3 O1         -4.5860    5.2750    1.2890 o         1 MOL     -0.535373
      4 H1         -6.0070    6.7790   -1.3530 hc        1 MOL      0.094748
      5 H2         -6.3890    7.2170    0.3280 hc        1 MOL      0.094748
      6 H3         -4.7730    7.5570   -0.3350 hc        1 MOL      0.094748
      7 N1         -5.3090    4.4060   -0.7700 n         1 MOL     -0.438620
      8 C3         -4.8670    2.9970   -0.5680 c3        1 MOL      0.044265
      9 C4         -3.3650    2.8690   -0.5640 c         1 MOL      0.561760
     10 O2         -2.9150    1.9740    0.1360 o         1 MOL     -0.523720
     11 C5         -5.5930    2.1010   -1.5570 c3        1 MOL     -0.150445
     12 C6         -5.7200    2.5780   -2.9870 c         1 MOL      0.622890
     13 O3         -5.6450    1.7450   -3.9200 o         1 MOL     -0.688613
     14 O4         -5.9390    3.8030   -3.2500 o         1 MOL     -0.688613
     15 H4         -5.8630    4.6240   -1.5930 hn        1 MOL      0.266079
     16 H5         -5.1870    2.6390    0.4160 h1        1 MOL      0.059745
     17 H6         -6.5810    1.8510   -1.1770 hc        1 MOL      0.044203
     18 H7         -5.0610    1.1650   -1.7100 hc        1 MOL      0.044203
     19 N2         -2.6450    3.7970   -1.2210 n         1 MOL     -0.557880
     20 C7         -1.1250    3.6440   -1.3170 c3        1 MOL      0.242474
     21 C8         -0.4800    3.7470    0.0110 c         1 MOL      0.421369
     22 O5         -0.8990    4.6000    0.8390 o         1 MOL     -0.511899
     23 C9         -0.5430    4.6710   -2.2430 c3        1 MOL     -0.024858
     24 C10        -1.1340    4.5350   -3.6640 c3        1 MOL     -0.015565
     25 C11        -0.6470    5.6960   -4.5690 c3        1 MOL     -0.117963
     26 C12         0.8430    5.7730   -4.6820 c3        1 MOL      0.214026
     27 N3          1.2710    6.9080   -5.5610 n4        1 MOL     -0.369184
     28 H8         -3.0630    4.6250   -1.6290 hn        1 MOL      0.321126
     29 H9         -1.0470    2.6740   -1.8100 h1        1 MOL      0.082773
     30 H10         0.5530    4.6150   -2.2410 hc        1 MOL      0.010605
     31 H11        -0.9240    5.5790   -1.7570 hc        1 MOL      0.010605
     32 H12        -2.2190    4.5840   -3.6450 hc        1 MOL      0.050027
     33 H13        -0.9090    3.5220   -4.0120 hc        1 MOL      0.050027
     34 H14        -0.9670    6.6340   -4.1230 hc        1 MOL      0.040786
     35 H15        -0.9890    5.6390   -5.6020 hc        1 MOL      0.040786
     36 H16         1.2290    4.8360   -5.0650 hx        1 MOL      0.032421
     37 H17         1.3430    5.8230   -3.7140 hx        1 MOL      0.032421
     38 H18         0.9200    7.8030   -5.2750 hn        1 MOL      0.304636
     39 H19         2.2810    6.9470   -5.5630 hn        1 MOL      0.304636
     40 H20         1.0940    6.7820   -6.5500 hn        1 MOL      0.304636
     41 N4          0.6580    3.0410    0.3610 n         1 MOL     -0.532969
     42 C13         1.3810    1.9170   -0.2160 c3        1 MOL      0.208856
     43 C14         1.7700    2.1590   -1.6780 c         1 MOL      0.541573
     44 O6          0.9380    1.8360   -2.6010 o         1 MOL     -0.589712
     45 C15         0.7010    0.5820    0.0240 c3        1 MOL     -0.455916
     46 C16         0.5210    0.2220    1.5290 c         1 MOL      0.832001
     47 O7         -0.4390   -0.4660    1.8940 o         1 MOL     -0.811509
     48 O8          1.2950    0.6920    2.4200 o         1 MOL     -0.811509
     49 H21         1.0940    3.3950    1.1990 hn        1 MOL      0.302388
     50 H22         2.3460    1.8550    0.2800 h1        1 MOL     -0.037360
     51 H23         1.3770   -0.1890   -0.3400 hc        1 MOL      0.165323
     52 H24        -0.2380    0.5590   -0.5360 hc        1 MOL      0.165323
     53 N5          3.0160    2.5630   -2.0240 n         1 MOL     -0.532831
     54 C17         4.0680    2.7600   -1.0380 c3        1 MOL      0.200990
     55 C18         5.3750    3.5540   -1.4990 c         1 MOL      0.406035
     56 O9          5.3440    3.8630   -2.6870 o         1 MOL     -0.563221
     57 H25         3.2830    2.4760   -2.9940 hn        1 MOL      0.326570
     58 H26         4.3730    1.7710   -0.7230 h1        1 MOL      0.059831
     59 H27         3.6380    3.2990   -0.1900 h1        1 MOL      0.059831
     60 N6          6.4000    3.7640   -0.7020 n         1 MOL     -0.294956
     61 C19         6.3390    3.5620    0.7420 c3        1 MOL      0.028539
     62 C20         7.0230    2.1940    1.0950 c         1 MOL      0.216907
     63 O10         7.7210    1.6200    0.2560 o         1 MOL     -0.376636
     64 C21         7.2160    4.6840    1.3320 c3        1 MOL     -0.203155
     65 C22         8.6680    4.7910    0.8580 c         1 MOL      0.730030
     66 O11         9.5060    4.0600    1.4000 o         1 MOL     -0.667332
     67 O12         8.9790    5.5340   -0.0860 o         1 MOL     -0.667332
     68 H28         7.0990    4.3460   -1.1410 hn        1 MOL      0.285979
     69 H29         5.3300    3.5720    1.1670 h1        1 MOL      0.051240
     70 H30         7.2200    4.4610    2.4020 hc        1 MOL      0.009376
     71 H31         6.6960    5.6320    1.2040 hc        1 MOL      0.009376
     72 N7          6.9920    1.7010    2.3350 n         1 MOL     -0.115619
     73 C23         7.7070    0.5240    2.7910 c3        1 MOL     -0.247144
     74 C24         6.9800   -0.8080    2.4280 c         1 MOL      0.511607
     75 O13         7.6280   -1.8300    2.3330 o         1 MOL     -0.546648
     76 H32         6.4700    2.2050    3.0430 hn        1 MOL      0.221813
     77 H33         7.8120    0.6260    3.8700 h1        1 MOL      0.143058
     78 H34         8.6520    0.4330    2.2390 h1        1 MOL      0.143058
     79 N8          5.6990   -0.8160    2.1410 n         1 MOL     -0.214741
     80 C25         4.9800   -1.9870    1.6450 c3        1 MOL     -0.201032
     81 C26         5.1360   -2.0570    0.0860 c         1 MOL      0.669157
     82 O14         4.9990   -0.9600   -0.5710 o         1 MOL     -0.559616
     83 C27         3.4920   -1.9650    2.0690 c3        1 MOL      0.507374
     84 C28         3.4240   -2.1310    3.5870 c3        1 MOL     -0.003816
     85 O15         2.9040   -3.0970    1.4960 oh        1 MOL     -0.639440
     86 H35         5.2200    0.0700    2.2340 hn        1 MOL      0.134068
     87 H36         5.5380   -2.8270    2.0450 h1        1 MOL      0.104120
     88 H37         2.9390   -1.1260    1.6470 h1        1 MOL     -0.014927
     89 H38         1.9950   -3.2090    1.7860 ho        1 MOL      0.405274
     90 H39         2.3740   -2.1530    3.8900 hc        1 MOL     -0.040003
     91 H40         3.8300   -3.1260    3.7900 hc        1 MOL     -0.040003
     92 H41         3.9820   -1.2980    4.0070 hc        1 MOL     -0.040003
     93 N9          5.3210   -3.2800   -0.5160 n         1 MOL     -0.407709
     94 C29         5.1300   -3.5620   -1.9700 c3        1 MOL     -0.172928
     95 C30         3.7730   -4.2740   -2.2300 c         1 MOL      0.442282
     96 O16         3.5640   -4.7260   -3.3560 o         1 MOL     -0.557335
     97 C31         6.3250   -4.3550   -2.5310 c3        1 MOL      0.306285
     98 C32         6.5220   -5.6650   -1.7570 c3        1 MOL     -0.008344
     99 C33         7.5590   -3.4670   -2.5630 c3        1 MOL     -0.358957
    100 C34         7.6730   -6.4820   -2.4450 c3        1 MOL     -0.197296
    101 H42         5.3300   -4.1200    0.0440 hn        1 MOL      0.244455
    102 H43         4.9980   -2.6240   -2.5130 h1        1 MOL      0.163455
    103 H44         6.0910   -4.6070   -3.5710 hc        1 MOL     -0.010709
    104 H45         5.6350   -6.2800   -1.8510 hc        1 MOL      0.014381
    105 H46         6.7560   -5.4370   -0.7170 hc        1 MOL      0.014381
    106 H47         7.9430   -3.4520   -1.5380 hc        1 MOL      0.094917
    107 H48         8.2870   -3.9970   -3.1840 hc        1 MOL      0.094917
    108 H49         7.3360   -2.4670   -2.9360 hc        1 MOL      0.094917
    109 H50         7.5870   -7.5170   -2.1100 hc        1 MOL      0.048017
    110 H51         7.5120   -6.3820   -3.5130 hc        1 MOL      0.048017
    111 H52         8.6720   -6.0850   -2.3190 hc        1 MOL      0.048017
    112 N10         2.8650   -4.2570   -1.2710 n         1 MOL     -0.231687
    113 C35         1.4930   -4.7800   -1.4110 c3        1 MOL      0.245677
    114 C36         0.5020   -3.6170   -1.2820 c         1 MOL      0.457701
    115 O17         0.9050   -2.5040   -0.9830 o         1 MOL     -0.486158
    116 C37         1.2580   -5.8870   -0.3210 c3        1 MOL      0.240313
    117 C38         2.0220   -7.1670   -0.6860 c3        1 MOL     -0.286747
    118 O18        -0.0920   -6.3010   -0.2930 oh        1 MOL     -0.630747
    119 H53         3.0220   -3.8170   -0.3790 hn        1 MOL      0.089504
    120 H54         1.3220   -5.1710   -2.4080 h1        1 MOL      0.024602
    121 H55         1.7000   -5.4730    0.5830 h1        1 MOL     -0.015223
    122 H56        -0.1060   -6.8110    0.5260 ho        1 MOL      0.410772
    123 H57         3.0640   -6.9400   -0.8860 hc        1 MOL      0.077122
    124 H58         1.9020   -7.8330    0.1730 hc        1 MOL      0.077122
    125 H59         1.5870   -7.6010   -1.5890 hc        1 MOL      0.077122
    126 N11        -0.7720   -3.9030   -1.5590 n         1 MOL     -0.572013
    127 C39        -1.8840   -2.9640   -1.2610 c3        1 MOL     -0.008811
    128 C40        -3.1870   -3.6990   -0.8440 c         1 MOL      0.587088
    129 O19        -3.4100   -4.8730   -1.1320 o         1 MOL     -0.519585
    130 C41        -2.2050   -2.1430   -2.4990 c3        1 MOL      0.221865
    131 C42        -2.8220   -0.7490   -2.3650 c3        1 MOL     -0.283199
    132 O20        -3.0840   -2.7850   -3.3750 oh        1 MOL     -0.634143
    133 H60        -1.0540   -4.8410   -1.7830 hn        1 MOL      0.344456
    134 H61        -1.5210   -2.2880   -0.4850 h1        1 MOL      0.153072
    135 H62        -1.2330   -2.0680   -2.9840 h1        1 MOL      0.088157
    136 H63        -2.5170   -3.2850   -3.9700 ho        1 MOL      0.382602
    137 H64        -2.7290   -0.2540   -3.3370 hc        1 MOL      0.087217
    138 H65        -3.8860   -0.8730   -2.1690 hc        1 MOL      0.087217
    139 H66        -2.3320   -0.1260   -1.6150 hc        1 MOL      0.087217
    140 N12        -4.0820   -2.8790   -0.2330 n         1 MOL     -0.543017
    141 C43        -5.4760   -3.3200    0.1080 c3        1 MOL      0.007696
    142 C44        -6.0960   -2.5960    1.2610 c         1 MOL      0.397546
    143 O21        -7.2580   -2.8940    1.5600 o         1 MOL     -0.532576
    144 C45        -6.3960   -2.9860   -1.1130 c3        1 MOL     -0.115215
    145 C46        -6.2610   -3.9400   -2.2710 c3        1 MOL      0.126699
    146 C47        -7.1330   -3.4220   -3.4630 c3        1 MOL     -0.203266
    147 C48        -6.7440   -4.1510   -4.7950 c3        1 MOL      0.102925
    148 N13        -5.6510   -3.4030   -5.4280 n4        1 MOL     -0.322698
    149 H67        -3.8580   -1.9370    0.0610 hn        1 MOL      0.213913
    150 H68        -5.6000   -4.3830    0.3460 h1        1 MOL      0.134068
    151 H69        -6.2850   -1.9510   -1.4020 hc        1 MOL      0.062238
    152 H70        -7.4010   -3.0870   -0.6880 hc        1 MOL      0.062238
    153 H71        -6.5700   -4.9140   -1.8910 hc        1 MOL      0.014206
    154 H72        -5.2420   -4.0180   -2.6530 hc        1 MOL      0.014206
    155 H73        -6.9520   -2.3510   -3.5480 hc        1 MOL      0.086063
    156 H74        -8.1890   -3.4170   -3.1890 hc        1 MOL      0.086063
    157 H75        -7.5430   -4.2460   -5.5250 hx        1 MOL      0.060622
    158 H76        -6.4920   -5.1860   -4.5610 hx        1 MOL      0.060622
    159 H77        -5.3130   -3.9020   -6.2280 hn        1 MOL      0.317853
    160 H78        -5.8890   -2.4470   -5.6740 hn        1 MOL      0.317853
    161 H79        -4.8530   -3.2240   -4.8300 hn        1 MOL      0.317853
    162 N14        -5.5030   -1.6260    1.8880 n         1 MOL     -0.302722
    163 C49        -6.0370   -0.7610    3.0250 c3        1 MOL     -0.074172
    164 C50        -6.8260    0.4410    2.5490 c         1 MOL      0.350235
    165 O22        -6.3050    1.5850    2.3590 o         1 MOL     -0.420297
    166 C51        -4.9480   -0.3190    3.9520 c3        1 MOL      0.037692
    167 C52        -4.3490   -1.5300    4.7060 c3        1 MOL      0.010394
    168 C53        -3.5010   -0.9990    5.8370 c         1 MOL      0.680318
    169 O23        -3.8380   -1.1470    7.0270 o         1 MOL     -0.701348
    170 O24        -2.4140   -0.4130    5.6290 o         1 MOL     -0.701348
    171 H80        -4.5150   -1.5070    1.7000 hn        1 MOL      0.384305
    172 H81        -6.6550   -1.4720    3.5690 h1        1 MOL      0.097236
    173 H82        -5.4540    0.3950    4.6140 hc        1 MOL      0.006164
    174 H83        -4.2910    0.3370    3.3820 hc        1 MOL      0.006164
    175 H84        -3.5850   -1.9190    4.0360 hc        1 MOL     -0.045082
    176 H85        -5.1460   -2.2220    4.9710 hc        1 MOL     -0.045082
    177 N15        -8.1280    0.1610    2.2930 n         1 MOL     -0.220009
    178 C54        -9.1360    1.1150    1.7900 c3        1 MOL     -0.114482
    179 H86        -8.8800    1.4080    0.7710 h1        1 MOL      0.081419
    180 H87       -10.1190    0.6430    1.7960 h1        1 MOL      0.081419
    181 H88        -9.1520    1.9980    2.4280 h1        1 MOL      0.081419
    182 H89        -8.4690   -0.7560    2.5320 hn        1 MOL      0.253690
    183 Ca1        -0.3380    0.5050    4.4630 Ca        1 MOL      1.743514
    184 O25        -1.7310    2.2410    2.8610 oh        1 MOL     -0.896469
    185 H90        -1.5160    3.1610    2.7030 ho        1 MOL      0.443253
    186 H91        -2.3480    2.0200    2.1550 ho        1 MOL      0.443253
    187 O26        -0.8280    2.0200    6.6700 oh        1 MOL     -0.896469
    188 H92        -0.1830    2.2720    7.3350 ho        1 MOL      0.443253
    189 H93        -1.5740    1.6960    7.1800 ho        1 MOL      0.443253
    190 O27        -0.3030   -2.1960    4.5100 oh        1 MOL     -0.896469
    191 H94         0.0930   -2.7630    3.8560 ho        1 MOL      0.443253
    192 H95        -0.9270   -2.7540    4.9670 ho        1 MOL      0.443253
@<TRIPOS>BOND
     1    1    2 1   
     2    1    4 1   
     3    1    5 1   
     4    1    6 1   
     5    2    3 2   
     6    2    7 1   
     7    7    8 1   
     8    7   15 1   
     9    8    9 1   
    10    8   11 1   
    11    8   16 1   
    12    9   10 2   
    13    9   19 1   
    14   11   12 1   
    15   11   17 1   
    16   11   18 1   
    17   12   13 1   
    18   12   14 1   
    19   19   20 1   
    20   19   28 1   
    21   20   21 1   
    22   20   23 1   
    23   20   29 1   
    24   21   22 2   
    25   21   41 1   
    26   23   24 1   
    27   23   30 1   
    28   23   31 1   
    29   24   25 1   
    30   24   32 1   
    31   24   33 1   
    32   25   26 1   
    33   25   34 1   
    34   25   35 1   
    35   26   27 1   
    36   26   36 1   
    37   26   37 1   
    38   27   38 1   
    39   27   39 1   
    40   27   40 1   
    41   41   42 1   
    42   41   49 1   
    43   42   43 1   
    44   42   45 1   
    45   42   50 1   
    46   43   44 2   
    47   43   53 1   
    48   45   46 1   
    49   45   51 1   
    50   45   52 1   
    51   46   47 1   
    52   46   48 1   
    53   53   54 1   
    54   53   57 1   
    55   54   55 1   
    56   54   58 1   
    57   54   59 1   
    58   55   56 2   
    59   55   60 1   
    60   60   61 1   
    61   60   68 1   
    62   61   62 1   
    63   61   64 1   
    64   61   69 1   
    65   62   63 2   
    66   62   72 1   
    67   64   65 1   
    68   64   70 1   
    69   64   71 1   
    70   65   66 1   
    71   65   67 1   
    72   72   73 1   
    73   72   76 1   
    74   73   74 1   
    75   73   77 1   
    76   73   78 1   
    77   74   75 2   
    78   74   79 1   
    79   79   80 1   
    80   79   86 1   
    81   80   81 1   
    82   80   83 1   
    83   80   87 1   
    84   81   82 2   
    85   81   93 1   
    86   83   84 1   
    87   83   85 1   
    88   83   88 1   
    89   84   90 1   
    90   84   91 1   
    91   84   92 1   
    92   85   89 1   
    93   93   94 1   
    94   93  101 1   
    95   94   95 1   
    96   94   97 1   
    97   94  102 1   
    98   95   96 2   
    99   95  112 1   
   100   97   98 1   
   101   97   99 1   
   102   97  103 1   
   103   98  100 1   
   104   98  104 1   
   105   98  105 1   
   106   99  106 1   
   107   99  107 1   
   108   99  108 1   
   109  100  109 1   
   110  100  110 1   
   111  100  111 1   
   112  112  113 1   
   113  112  119 1   
   114  113  114 1   
   115  113  116 1   
   116  113  120 1   
   117  114  115 2   
   118  114  126 1   
   119  116  117 1   
   120  116  118 1   
   121  116  121 1   
   122  117  123 1   
   123  117  124 1   
   124  117  125 1   
   125  118  122 1   
   126  126  127 1   
   127  126  133 1   
   128  127  128 1   
   129  127  130 1   
   130  127  134 1   
   131  128  129 2   
   132  128  140 1   
   133  130  131 1   
   134  130  132 1   
   135  130  135 1   
   136  131  137 1   
   137  131  138 1   
   138  131  139 1   
   139  132  136 1   
   140  140  141 1   
   141  140  149 1   
   142  141  142 1   
   143  141  144 1   
   144  141  150 1   
   145  142  143 2   
   146  142  162 1   
   147  144  145 1   
   148  144  151 1   
   149  144  152 1   
   150  145  146 1   
   151  145  153 1   
   152  145  154 1   
   153  146  147 1   
   154  146  155 1   
   155  146  156 1   
   156  147  148 1   
   157  147  157 1   
   158  147  158 1   
   159  148  159 1   
   160  148  160 1   
   161  148  161 1   
   162  162  163 1   
   163  162  171 1   
   164  163  164 1   
   165  163  166 1   
   166  163  172 1   
   167  164  165 2   
   168  164  177 1   
   169  166  167 1   
   170  166  173 1   
   171  166  174 1   
   172  167  168 1   
   173  167  175 1   
   174  167  176 1   
   175  168  169 1   
   176  168  170 1   
   177  177  178 1   
   178  177  182 1   
   179  178  179 1   
   180  178  180 1   
   181  178  181 1   
   182  184  185 1   
   183  184  186 1   
   184  187  188 1   
   185  187  189 1   
   186  190  191 1   
   187  190  192 1   
@<TRIPOS>SUBSTRUCTURE
     1 MOL         1 TEMP              0 ****  ****    0 ROOT
