@<TRIPOS>MOLECULE
MOL
  192   187     1     0     0
SMALL
resp


@<TRIPOS>ATOM
      1 C1         -4.2190   -1.5560    2.7170 c3        1 MOL     -0.696894
      2 C2         -3.3930   -2.4300    1.7120 c         1 MOL      0.687011
      3 O1         -2.2960   -1.9860    1.4020 o         1 MOL     -0.469099
      4 H1         -3.5540   -1.1590    3.4830 hc        1 MOL      0.170347
      5 H2         -4.6890   -0.7320    2.1820 hc        1 MOL      0.170347
      6 H3         -4.9880   -2.1700    3.1870 hc        1 MOL      0.170347
      7 N1         -3.8890   -3.6100    1.2490 n         1 MOL     -0.381734
      8 C3         -3.2570   -4.3080    0.1470 c3        1 MOL     -0.161613
      9 C4         -1.7500   -4.6940    0.2660 c         1 MOL      0.747376
     10 O2         -0.9000   -4.6720   -0.6850 o         1 MOL     -0.545824
     11 C5         -3.6670   -3.6380   -1.2190 c3        1 MOL     -0.585852
     12 C6         -5.1720   -3.4520   -1.3020 c         1 MOL      0.934239
     13 O3         -5.9180   -4.4630   -1.1280 o         1 MOL     -0.762270
     14 O4         -5.7020   -2.3700   -1.6640 o         1 MOL     -0.762270
     15 H4         -4.8180   -3.9330    1.5020 hn        1 MOL      0.200034
     16 H5         -3.7290   -5.2930    0.1670 h1        1 MOL      0.130930
     17 H6         -3.5080   -4.3210   -2.0600 hc        1 MOL      0.203721
     18 H7         -3.2790   -2.6270   -1.3410 hc        1 MOL      0.203721
     19 N2         -1.3380   -4.8960    1.5160 n         1 MOL     -0.621175
     20 C7          0.0300   -4.8790    2.0520 c3        1 MOL     -0.130250
     21 C8          0.8650   -6.0920    1.5720 c         1 MOL      0.465037
     22 O5          0.3380   -7.2320    1.3830 o         1 MOL     -0.563548
     23 C9          0.2300   -4.9460    3.6210 c3        1 MOL     -0.060162
     24 C10        -0.4270   -6.2290    4.3290 c3        1 MOL      0.283655
     25 C11        -0.5370   -3.6660    4.0760 c3        1 MOL     -0.183941
     26 C12        -0.3400   -6.2880    5.8040 c3        1 MOL     -0.303402
     27 H8         -2.1190   -4.8430    2.1540 hn        1 MOL      0.353264
     28 H9          0.4810   -3.9500    1.7130 h1        1 MOL      0.229018
     29 H10         1.2860   -4.8090    3.8400 hc        1 MOL      0.090091
     30 H11         0.0600   -7.1370    3.9890 hc        1 MOL     -0.039169
     31 H12        -1.4590   -6.2770    3.9630 hc        1 MOL     -0.039169
     32 H13        -0.2750   -3.5070    5.1230 hc        1 MOL      0.054927
     33 H14        -0.2340   -2.8410    3.4390 hc        1 MOL      0.054927
     34 H15        -1.6120   -3.7110    3.9110 hc        1 MOL      0.054927
     35 H16         0.7010   -6.3720    6.1190 hc        1 MOL      0.056663
     36 H17        -0.7720   -5.4130    6.2910 hc        1 MOL      0.056663
     37 H18        -0.8540   -7.2140    6.0590 hc        1 MOL      0.056663
     38 N3          2.1540   -6.0130    1.2340 n         1 MOL     -0.422162
     39 C13         2.9720   -4.8090    0.8440 c3        1 MOL      0.098058
     40 C14         3.6860   -5.1910   -0.4200 c         1 MOL      0.497540
     41 O6          4.5650   -6.0120   -0.3680 o         1 MOL     -0.510403
     42 C15         3.9040   -4.2740    1.9670 c3        1 MOL     -0.307648
     43 C16         5.1220   -3.4660    1.4780 c         1 MOL      0.804887
     44 O7          6.1940   -3.4920    2.1210 o         1 MOL     -0.707529
     45 O8          4.9040   -2.7930    0.4530 o         1 MOL     -0.707529
     46 H19         2.4850   -6.9370    1.0090 hn        1 MOL      0.290003
     47 H20         2.2060   -4.0990    0.5200 h1        1 MOL      0.000225
     48 H21         4.0530   -5.0890    2.6720 hc        1 MOL      0.060726
     49 H22         3.2950   -3.5430    2.5080 hc        1 MOL      0.060726
     50 N4          3.3030   -4.5930   -1.5940 n         1 MOL     -0.304918
     51 C17         3.8970   -5.0020   -2.8350 c3        1 MOL     -0.230018
     52 C18         5.1340   -4.1520   -3.3600 c         1 MOL      0.540307
     53 O9          5.4560   -4.1550   -4.5720 o         1 MOL     -0.602995
     54 H23         2.4900   -3.9990   -1.5080 hn        1 MOL      0.315071
     55 H24         3.0830   -4.8920   -3.5570 h1        1 MOL      0.108886
     56 H25         4.2100   -6.0330   -2.7170 h1        1 MOL      0.108886
     57 N5          5.6010   -3.1830   -2.5820 n         1 MOL     -0.251216
     58 C19         6.5700   -2.0990   -2.9880 c3        1 MOL     -0.035295
     59 C20         7.6690   -1.7050   -1.9810 c         1 MOL      0.419149
     60 O10         8.7950   -1.4260   -2.3720 o         1 MOL     -0.568417
     61 C21         5.7570   -0.8580   -3.3640 c3        1 MOL     -0.172972
     62 C22         4.7160   -0.4920   -2.3490 c         1 MOL      0.648334
     63 O11         5.1290    0.2780   -1.4390 o         1 MOL     -0.643183
     64 O12         3.5350   -0.8130   -2.4490 o         1 MOL     -0.643183
     65 H26         5.2810   -3.1310   -1.6290 hn        1 MOL      0.179393
     66 H27         7.1130   -2.3550   -3.9000 h1        1 MOL      0.089479
     67 H28         5.3570   -1.0750   -4.3560 hc        1 MOL      0.052223
     68 H29         6.3650    0.0350   -3.5360 hc        1 MOL      0.052223
     69 N6          7.3610   -1.6420   -0.6520 n         1 MOL     -0.253869
     70 C23         8.1900   -1.0100    0.4200 c3        1 MOL     -0.140228
     71 C24         8.3250    0.5120    0.3540 c         1 MOL      0.608507
     72 O13         8.9190    1.0650    1.2370 o         1 MOL     -0.597111
     73 H30         6.3990   -1.8450   -0.4180 hn        1 MOL      0.262019
     74 H31         9.2090   -1.3840    0.2850 h1        1 MOL      0.095807
     75 H32         7.8540   -1.3280    1.4030 h1        1 MOL      0.095807
     76 N7          7.6780    1.2070   -0.6130 n         1 MOL     -0.311863
     77 C25         7.6690    2.6070   -0.8440 c3        1 MOL     -0.108212
     78 C26         7.0780    3.4870    0.2900 c         1 MOL      0.526616
     79 O14         7.4540    4.6640    0.4720 o         1 MOL     -0.525867
     80 C27         9.0600    3.0310   -1.3550 c3        1 MOL      0.115028
     81 C28         9.3690    2.6000   -2.7710 c3        1 MOL     -0.345035
     82 C29         8.8880    3.5900   -3.8110 c         1 MOL      0.730871
     83 N8          9.2990    3.4270   -5.0670 n         1 MOL     -0.877898
     84 O15         8.1650    4.5780   -3.6290 o         1 MOL     -0.556013
     85 H33         7.2600    0.6380   -1.3370 hn        1 MOL      0.232899
     86 H34         6.9620    2.7750   -1.6510 h1        1 MOL      0.113715
     87 H35         9.8350    2.6960   -0.6730 hc        1 MOL      0.010261
     88 H36         9.1210    4.1190   -1.3560 hc        1 MOL      0.010261
     89 H37         8.7680    1.7370   -3.0420 hc        1 MOL      0.097370
     90 H38        10.3980    2.2820   -2.9260 hc        1 MOL      0.097370
     91 H39         9.7280    2.5590   -5.3450 hn        1 MOL      0.366018
     92 H40         8.9930    4.1290   -5.7190 hn        1 MOL      0.366018
     93 N9          6.1890    2.9740    1.1660 n         1 MOL     -0.374609
     94 C30         5.7320    3.6490    2.3760 c3        1 MOL     -0.189124
     95 C31         4.2230    3.4710    2.7130 c         1 MOL      0.610434
     96 O16         3.7580    4.1000    3.6640 o         1 MOL     -0.581182
     97 C32         6.5840    3.1340    3.5510 c3        1 MOL      0.295681
     98 C33         6.4780    1.6610    3.9160 c3        1 MOL     -0.375977
     99 C34         8.1000    3.4150    3.4850 c3        1 MOL     -0.375977
    100 H41         6.0690    1.9770    1.2220 hn        1 MOL      0.315542
    101 H42         5.8870    4.7030    2.1730 h1        1 MOL      0.134384
    102 H43         6.2270    3.6760    4.4230 hc        1 MOL     -0.033502
    103 H44         7.0490    1.1030    3.1690 hc        1 MOL      0.091165
    104 H45         6.7030    1.4970    4.9790 hc        1 MOL      0.091165
    105 H46         5.4650    1.2940    3.7630 hc        1 MOL      0.091165
    106 H47         8.3070    4.4660    3.3340 hc        1 MOL      0.091165
    107 H48         8.5040    3.2110    4.4830 hc        1 MOL      0.091165
    108 H49         8.5340    2.7070    2.7730 hc        1 MOL      0.091165
    109 N10         3.4730    2.7080    1.8730 n         1 MOL     -0.417312
    110 C35         2.0240    2.3080    2.1460 c3        1 MOL      0.160229
    111 C36         1.1830    2.3860    0.8970 c         1 MOL      0.478477
    112 O17         1.6570    2.3350   -0.2500 o         1 MOL     -0.467909
    113 C37         2.0470    0.8530    2.8070 c3        1 MOL      0.026550
    114 C38         0.6820    0.1810    2.8000 c         1 MOL      0.522453
    115 N11         0.4280   -0.6800    1.8320 n         1 MOL     -0.743071
    116 O18        -0.1470    0.5820    3.5960 o         1 MOL     -0.579194
    117 H50         3.9040    2.1700    1.1350 hn        1 MOL      0.185528
    118 H51         1.5200    2.9830    2.8290 h1        1 MOL      0.041083
    119 H52         2.2900    0.9610    3.8620 hc        1 MOL      0.014332
    120 H53         2.8240    0.1500    2.5270 hc        1 MOL      0.014332
    121 H54         1.1690   -0.8980    1.1760 hn        1 MOL      0.363118
    122 H55        -0.4600   -1.1620    1.7990 hn        1 MOL      0.363118
    123 N12        -0.1720    2.4650    1.1110 n         1 MOL     -0.479653
    124 C39        -1.1070    2.6260    0.0480 c3        1 MOL      0.159732
    125 C40        -2.3240    3.5370    0.4080 c         1 MOL      0.471692
    126 O19        -2.7560    3.4500    1.5800 o         1 MOL     -0.572847
    127 C41        -1.6120    1.2720   -0.4610 c3        1 MOL     -0.345443
    128 C42        -2.5690    1.3500   -1.5790 ca        1 MOL      0.037066
    129 C43        -3.8630    0.9440   -1.4890 ca        1 MOL     -0.095752
    130 C44        -2.1610    1.9300   -2.7600 ca        1 MOL     -0.095752
    131 C45        -4.7690    1.0710   -2.5620 ca        1 MOL     -0.358062
    132 C46        -3.0070    2.0540   -3.8440 ca        1 MOL     -0.358062
    133 C47        -4.3420    1.6510   -3.7740 ca        1 MOL      0.444222
    134 O20        -5.1380    1.8220   -4.8440 oh        1 MOL     -0.580485
    135 H56        -0.6220    2.3920    2.0140 hn        1 MOL      0.306507
    136 H57        -0.6170    3.1920   -0.7390 h1        1 MOL      0.025430
    137 H58        -2.1130    0.7050    0.3270 hc        1 MOL      0.170009
    138 H59        -0.7010    0.8250   -0.8640 hc        1 MOL      0.170009
    139 H60        -4.1800    0.5540   -0.5340 ha        1 MOL      0.130429
    140 H61        -1.1450    2.2800   -2.8120 ha        1 MOL      0.130429
    141 H62        -5.7840    0.7120   -2.4740 ha        1 MOL      0.177219
    142 H63        -2.6300    2.4890   -4.7630 ha        1 MOL      0.177219
    143 H64        -6.0410    1.5250   -4.6750 ho        1 MOL      0.425823
    144 N13        -2.8200    4.3890   -0.5110 n         1 MOL     -0.490539
    145 C48        -4.1450    5.0590   -0.1400 c3        1 MOL      0.494927
    146 C49        -5.2820    4.3000   -0.8530 c         1 MOL      0.297190
    147 O21        -5.2590    4.1180   -2.0800 o         1 MOL     -0.519886
    148 C50        -4.0930    6.4490   -0.6540 c3        1 MOL      0.122331
    149 C51        -3.3830    7.4770    0.2230 c3        1 MOL     -0.244336
    150 C52        -3.6520    8.9180   -0.3100 c         1 MOL      0.661516
    151 O22        -3.2920    9.3140   -1.4690 o         1 MOL     -0.664892
    152 O23        -4.2950    9.6970    0.4370 o         1 MOL     -0.664892
    153 H65        -2.4710    4.4440   -1.4590 hn        1 MOL      0.313145
    154 H66        -4.1810    5.1310    0.9460 h1        1 MOL     -0.030775
    155 H67        -5.1130    6.7430   -0.8830 hc        1 MOL     -0.028822
    156 H68        -3.5730    6.4520   -1.6110 hc        1 MOL     -0.028822
    157 H69        -2.3560    7.1480    0.3470 hc        1 MOL      0.023607
    158 H70        -3.7810    7.4340    1.2420 hc        1 MOL      0.023607
    159 N14        -6.3810    3.8570   -0.2910 n         1 MOL     -0.416068
    160 C53        -6.4740    3.2620    1.0440 c3        1 MOL     -0.123306
    161 C54        -6.5240    4.3360    2.2550 c         1 MOL      0.374648
    162 O24        -7.3260    5.2680    2.1530 o         1 MOL     -0.513450
    163 C55        -7.5730    2.1900    1.1220 c3        1 MOL      0.162502
    164 C56        -7.1320    1.0350    0.2120 c3        1 MOL      0.061854
    165 C57        -8.3660    0.2010   -0.1240 c         1 MOL      0.574667
    166 O25        -8.3100   -1.0400    0.0730 o         1 MOL     -0.719128
    167 O26        -9.3870    0.8010   -0.6040 o         1 MOL     -0.719128
    168 H71        -7.1500    3.6990   -0.9330 hn        1 MOL      0.333525
    169 H72        -5.4940    2.8090    1.2110 h1        1 MOL      0.140965
    170 H73        -8.4510    2.6740    0.6980 hc        1 MOL     -0.018676
    171 H74        -7.6170    1.8180    2.1470 hc        1 MOL     -0.018676
    172 H75        -6.2750    0.4720    0.5900 hc        1 MOL     -0.037558
    173 H76        -6.7350    1.4360   -0.7170 hc        1 MOL     -0.037558
    174 N15        -5.7290    4.2020    3.3130 n         1 MOL     -0.112829
    175 C58        -5.8320    4.8710    4.6420 c3        1 MOL     -0.415207
    176 H77        -4.9980    4.5590    5.2700 h1        1 MOL      0.151689
    177 H78        -5.8020    5.9520    4.5080 h1        1 MOL      0.151689
    178 H79        -6.7710    4.5900    5.1190 h1        1 MOL      0.151689
    179 H80        -5.0770    3.4380    3.1720 hn        1 MOL      0.189778
    180 Ca1        -8.1660   -3.1390   -1.3010 Ca        1 MOL      1.564767
    181 O27        -7.9530   -4.8760   -3.5450 oh        1 MOL     -0.747639
    182 H81        -8.2970   -4.2080   -4.1410 ho        1 MOL      0.353529
    183 H82        -7.4750   -5.4820   -4.1140 ho        1 MOL      0.353529
    184 O28        -9.8900   -4.9800   -0.3100 oh        1 MOL     -0.747639
    185 H83       -10.3530   -5.7570   -0.6140 ho        1 MOL      0.353529
    186 H84       -10.4940   -4.5780    0.3210 ho        1 MOL      0.353529
    187 O29       -10.4330   -2.7550   -2.3470 oh        1 MOL     -0.747639
    188 H85       -10.7440   -3.2610   -3.1070 ho        1 MOL      0.353529
    189 H86       -11.2330   -2.4370   -1.9250 ho        1 MOL      0.353529
    190 O30        -7.6470   -1.7140   -3.4840 oh        1 MOL     -0.747639
    191 H87        -6.7030   -1.6330   -3.3600 ho        1 MOL      0.353529
    192 H88        -7.9400   -0.8230   -3.6720 ho        1 MOL      0.353529
@<TRIPOS>BOND
     1    1    2 1   
     2    1    4 1   
     3    1    5 1   
     4    1    6 1   
     5    2    3 2   
     6    2    7 1   
     7    7    8 1   
     8    7   15 1   
     9    8    9 1   
    10    8   11 1   
    11    8   16 1   
    12    9   10 2   
    13    9   19 1   
    14   11   12 1   
    15   11   17 1   
    16   11   18 1   
    17   12   13 1   
    18   12   14 1   
    19   19   20 1   
    20   19   27 1   
    21   20   21 1   
    22   20   23 1   
    23   20   28 1   
    24   21   22 2   
    25   21   38 1   
    26   23   24 1   
    27   23   25 1   
    28   23   29 1   
    29   24   26 1   
    30   24   30 1   
    31   24   31 1   
    32   25   32 1   
    33   25   33 1   
    34   25   34 1   
    35   26   35 1   
    36   26   36 1   
    37   26   37 1   
    38   38   39 1   
    39   38   46 1   
    40   39   40 1   
    41   39   42 1   
    42   39   47 1   
    43   40   41 2   
    44   40   50 1   
    45   42   43 1   
    46   42   48 1   
    47   42   49 1   
    48   43   44 1   
    49   43   45 1   
    50   50   51 1   
    51   50   54 1   
    52   51   52 1   
    53   51   55 1   
    54   51   56 1   
    55   52   53 2   
    56   52   57 1   
    57   57   58 1   
    58   57   65 1   
    59   58   59 1   
    60   58   61 1   
    61   58   66 1   
    62   59   60 2   
    63   59   69 1   
    64   61   62 1   
    65   61   67 1   
    66   61   68 1   
    67   62   63 1   
    68   62   64 1   
    69   69   70 1   
    70   69   73 1   
    71   70   71 1   
    72   70   74 1   
    73   70   75 1   
    74   71   72 2   
    75   71   76 1   
    76   76   77 1   
    77   76   85 1   
    78   77   78 1   
    79   77   80 1   
    80   77   86 1   
    81   78   79 2   
    82   78   93 1   
    83   80   81 1   
    84   80   87 1   
    85   80   88 1   
    86   81   82 1   
    87   81   89 1   
    88   81   90 1   
    89   82   83 1   
    90   82   84 2   
    91   83   91 1   
    92   83   92 1   
    93   93   94 1   
    94   93  100 1   
    95   94   95 1   
    96   94   97 1   
    97   94  101 1   
    98   95   96 2   
    99   95  109 1   
   100   97   98 1   
   101   97   99 1   
   102   97  102 1   
   103   98  103 1   
   104   98  104 1   
   105   98  105 1   
   106   99  106 1   
   107   99  107 1   
   108   99  108 1   
   109  109  110 1   
   110  109  117 1   
   111  110  111 1   
   112  110  113 1   
   113  110  118 1   
   114  111  112 2   
   115  111  123 1   
   116  113  114 1   
   117  113  119 1   
   118  113  120 1   
   119  114  115 1   
   120  114  116 2   
   121  115  121 1   
   122  115  122 1   
   123  123  124 1   
   124  123  135 1   
   125  124  125 1   
   126  124  127 1   
   127  124  136 1   
   128  125  126 2   
   129  125  144 1   
   130  127  128 1   
   131  127  137 1   
   132  127  138 1   
   133  128  129 ar  
   134  128  130 ar  
   135  129  131 ar  
   136  129  139 1   
   137  130  132 ar  
   138  130  140 1   
   139  131  133 ar  
   140  131  141 1   
   141  132  133 ar  
   142  132  142 1   
   143  133  134 1   
   144  134  143 1   
   145  144  145 1   
   146  144  153 1   
   147  145  146 1   
   148  145  148 1   
   149  145  154 1   
   150  146  147 2   
   151  146  159 1   
   152  148  149 1   
   153  148  155 1   
   154  148  156 1   
   155  149  150 1   
   156  149  157 1   
   157  149  158 1   
   158  150  151 1   
   159  150  152 1   
   160  159  160 1   
   161  159  168 1   
   162  160  161 1   
   163  160  163 1   
   164  160  169 1   
   165  161  162 2   
   166  161  174 1   
   167  163  164 1   
   168  163  170 1   
   169  163  171 1   
   170  164  165 1   
   171  164  172 1   
   172  164  173 1   
   173  165  166 1   
   174  165  167 1   
   175  174  175 1   
   176  174  179 1   
   177  175  176 1   
   178  175  177 1   
   179  175  178 1   
   180  181  182 1   
   181  181  183 1   
   182  184  185 1   
   183  184  186 1   
   184  187  188 1   
   185  187  189 1   
   186  190  191 1   
   187  190  192 1   
@<TRIPOS>SUBSTRUCTURE
     1 MOL         1 TEMP              0 ****  ****    0 ROOT
