@<TRIPOS>MOLECULE
MOL
  192   187     1     0     0
SMALL
resp


@<TRIPOS>ATOM
      1 C1          9.1060    0.2110    2.4510 c3        1 MOL     -0.364816
      2 C2          8.0000   -0.1070    1.4410 c         1 MOL      0.640018
      3 O1          6.8670   -0.4680    1.8250 o         1 MOL     -0.621353
      4 H1          8.7420    0.9450    3.1690 hc        1 MOL      0.099171
      5 H2          9.3910   -0.7010    2.9770 hc        1 MOL      0.099171
      6 H3          9.9730    0.6140    1.9280 hc        1 MOL      0.099171
      7 N1          8.2920   -0.0100    0.1330 n         1 MOL     -0.462458
      8 C3          7.3530   -0.3210   -0.9770 c3        1 MOL     -0.175243
      9 C4          6.9610   -1.8150   -1.1990 c         1 MOL      0.395087
     10 O2          6.7940   -2.2530   -2.3350 o         1 MOL     -0.430786
     11 C5          7.7660    0.3890   -2.2690 c3        1 MOL     -0.264318
     12 C6          9.0940   -0.0560   -2.8360 c         1 MOL      0.787700
     13 O3          9.5830    0.6150   -3.7130 o         1 MOL     -0.644648
     14 O4          9.7630   -0.9020   -2.2760 o         1 MOL     -0.644648
     15 H4          9.2730    0.0540   -0.0810 hn        1 MOL      0.324098
     16 H5          6.3760    0.0730   -0.6720 h1        1 MOL      0.268222
     17 H6          7.7590    1.4640   -2.0990 hc        1 MOL      0.090224
     18 H7          6.9750    0.2490   -3.0040 hc        1 MOL      0.090224
     19 N2          6.7060   -2.5770   -0.1580 n         1 MOL     -0.105341
     20 C7          6.1910   -3.9340   -0.1480 c3        1 MOL      0.056556
     21 C8          4.7800   -4.0500   -0.7100 c         1 MOL      0.373111
     22 O5          4.5720   -4.8770   -1.5820 o         1 MOL     -0.517121
     23 C9          6.2020   -4.5110    1.2870 c3        1 MOL      0.022812
     24 C10         7.4420   -4.1660    2.0010 c3        1 MOL     -0.059802
     25 C11         7.6310   -4.9010    3.3720 c3        1 MOL      0.028198
     26 C12         8.9420   -4.5020    4.1220 c3        1 MOL      0.047944
     27 N3          9.1100   -5.2850    5.3550 n4        1 MOL     -0.153465
     28 H8          6.8290   -2.1360    0.7430 hn        1 MOL     -0.018534
     29 H9          6.8980   -4.5300   -0.7120 h1        1 MOL      0.067900
     30 H10         6.0300   -5.5810    1.2300 hc        1 MOL      0.013637
     31 H11         5.3460   -4.1370    1.8570 hc        1 MOL      0.013637
     32 H12         7.4880   -3.1250    2.3210 hc        1 MOL      0.049223
     33 H13         8.2360   -4.4420    1.3110 hc        1 MOL      0.049223
     34 H14         7.6110   -5.9860    3.3320 hc        1 MOL      0.007184
     35 H15         6.8050   -4.6030    4.0240 hc        1 MOL      0.007184
     36 H16         9.0120   -3.4270    4.3100 hx        1 MOL      0.055300
     37 H17         9.7580   -4.8340    3.4760 hx        1 MOL      0.055300
     38 H18         9.9390   -5.0370    5.8730 hn        1 MOL      0.232035
     39 H19         8.3680   -5.2260    6.0310 hn        1 MOL      0.232035
     40 H20         9.1730   -6.2650    5.0970 hn        1 MOL      0.232035
     41 N4          3.8110   -3.2280   -0.3830 n         1 MOL     -0.336323
     42 C13         3.7240   -2.0660    0.5290 c3        1 MOL      0.069432
     43 C14         3.8770   -0.6640   -0.1330 c         1 MOL      0.257940
     44 O6          3.9850   -0.4850   -1.3270 o         1 MOL     -0.428243
     45 C15         2.4730   -2.0960    1.3860 c3        1 MOL     -0.361667
     46 C16         1.1240   -2.2530    0.6330 c         1 MOL      0.751518
     47 O7          0.8490   -1.5440   -0.3590 o         1 MOL     -0.675944
     48 O8          0.3370   -3.1640    0.9320 o         1 MOL     -0.675944
     49 H21         2.9940   -3.3940   -0.9450 hn        1 MOL      0.351902
     50 H22         4.4740   -2.0640    1.3150 h1        1 MOL      0.157954
     51 H23         2.4860   -1.3100    2.1380 hc        1 MOL      0.068343
     52 H24         2.7370   -2.9750    1.9750 hc        1 MOL      0.068343
     53 N5          4.0920    0.3840    0.6460 n         1 MOL     -0.136537
     54 C17         4.2850    1.7400    0.1660 c3        1 MOL     -0.049826
     55 C18         3.1440    2.2960   -0.6700 c         1 MOL      0.559733
     56 O9          2.0330    1.7510   -0.6580 o         1 MOL     -0.719442
     57 H25         4.1530    0.3200    1.6520 hn        1 MOL      0.218759
     58 H26         5.2650    1.8760   -0.2950 h1        1 MOL      0.041692
     59 H27         4.3000    2.3680    1.0570 h1        1 MOL      0.041692
     60 N6          3.4560    3.4010   -1.3480 n         1 MOL     -0.481533
     61 C19         2.4500    4.3860   -1.8720 c3        1 MOL      0.080319
     62 C20         2.9840    5.8640   -1.6830 c         1 MOL      0.544617
     63 O10         4.2010    6.0610   -1.6310 o         1 MOL     -0.546617
     64 C21         2.2450    4.1440   -3.3410 c3        1 MOL     -0.514892
     65 C22         1.4520    2.8440   -3.5390 c         1 MOL      0.849982
     66 O11         1.7870    2.0950   -4.4750 o         1 MOL     -0.697381
     67 O12         0.3920    2.6280   -2.9560 o         1 MOL     -0.697381
     68 H28         4.4160    3.6910   -1.4590 hn        1 MOL      0.326009
     69 H29         1.4870    4.2880   -1.3800 h1        1 MOL      0.188342
     70 H30         3.1990    4.2460   -3.8590 hc        1 MOL      0.144963
     71 H31         1.6360    4.9590   -3.7150 hc        1 MOL      0.144963
     72 N7          2.1870    6.8810   -1.4450 n         1 MOL     -0.509318
     73 C23         0.8350    7.0160   -1.8520 c3        1 MOL      0.144130
     74 C24        -0.1120    6.5550   -0.7750 c         1 MOL      0.411154
     75 O13         0.0920    6.7690    0.4520 o         1 MOL     -0.518515
     76 H32         2.6360    7.7260   -1.1180 hn        1 MOL      0.329699
     77 H33         0.5360    6.4300   -2.7140 h1        1 MOL      0.028211
     78 H34         0.6320    8.0420   -2.1620 h1        1 MOL      0.028211
     79 N8         -1.0800    5.7800   -1.1870 n         1 MOL     -0.459735
     80 C25        -1.9360    5.0440   -0.2240 c3        1 MOL      0.033020
     81 C26        -1.3430    3.8110    0.2850 c         1 MOL      0.644432
     82 O14        -0.7610    2.9890   -0.4490 o         1 MOL     -0.621540
     83 C27        -3.3370    4.6960   -0.8020 c3        1 MOL      0.621915
     84 C28        -4.0930    5.8650   -1.3620 c3        1 MOL     -0.278966
     85 O15        -4.2610    4.1380    0.1730 oh        1 MOL     -0.703866
     86 H35        -1.0670    5.4930   -2.1470 hn        1 MOL      0.276058
     87 H36        -2.1490    5.7420    0.5880 h1        1 MOL      0.098036
     88 H37        -3.2570    3.8870   -1.5320 h1        1 MOL     -0.121208
     89 H38        -4.7600    3.5020   -0.3410 ho        1 MOL      0.385476
     90 H39        -4.9260    5.5150   -1.9600 hc        1 MOL      0.056718
     91 H40        -4.3080    6.4770   -0.4810 hc        1 MOL      0.056718
     92 H41        -3.4520    6.4460   -2.0280 hc        1 MOL      0.056718
     93 N9         -1.4450    3.6630    1.5970 n         1 MOL     -0.707461
     94 C29        -0.8240    2.6460    2.5340 c3        1 MOL     -0.053772
     95 C30        -1.2650    1.2440    2.2010 c         1 MOL      0.816274
     96 O16        -0.7770    0.7260    1.2060 o         1 MOL     -0.635641
     97 C31         0.7120    2.8230    2.6470 c3        1 MOL     -0.004707
     98 C32         1.2000    4.2430    3.0190 c3        1 MOL     -0.068897
     99 C33         1.3780    1.9470    3.7770 c3        1 MOL     -0.663816
    100 C34         0.3560    4.9340    4.1100 c3        1 MOL     -0.052566
    101 H42        -1.9460    4.3710    2.1120 hn        1 MOL      0.362918
    102 H43        -1.3050    2.9040    3.4790 h1        1 MOL      0.105505
    103 H44         1.1150    2.5510    1.6670 hc        1 MOL      0.162667
    104 H45         1.0780    4.8800    2.1490 hc        1 MOL      0.068965
    105 H46         2.2530    4.3460    3.2520 hc        1 MOL      0.068965
    106 H47         1.0230    2.1690    4.7770 hc        1 MOL      0.182424
    107 H48         1.1150    0.9290    3.4960 hc        1 MOL      0.182424
    108 H49         2.4650    2.0350    3.8650 hc        1 MOL      0.182424
    109 H50         0.7090    5.9440    4.2880 hc        1 MOL      0.013017
    110 H51        -0.7220    4.9300    3.9200 hc        1 MOL      0.013017
    111 H52         0.3660    4.4130    5.0740 hc        1 MOL      0.013017
    112 N10        -2.2500    0.7040    2.9420 n         1 MOL     -0.473121
    113 C35        -2.6310   -0.7470    2.8380 c3        1 MOL     -0.239794
    114 C36        -4.1460   -1.0010    3.1540 c         1 MOL      0.521026
    115 O17        -4.5670   -2.1460    3.0150 o         1 MOL     -0.526960
    116 C37        -1.7390   -1.6190    3.7700 c3        1 MOL      0.296398
    117 C38        -1.9200   -1.3850    5.2350 c3        1 MOL     -0.243739
    118 O18        -0.3550   -1.5330    3.6400 oh        1 MOL     -0.503342
    119 H53        -2.7520    1.3400    3.5440 hn        1 MOL      0.266480
    120 H54        -2.5810   -1.1440    1.8200 h1        1 MOL      0.222117
    121 H55        -2.0650   -2.6480    3.6170 h1        1 MOL      0.044412
    122 H56        -0.0720   -2.0160    2.8570 ho        1 MOL      0.302556
    123 H57        -1.0330   -1.6330    5.8090 hc        1 MOL      0.058233
    124 H58        -2.0160   -0.3130    5.4150 hc        1 MOL      0.058233
    125 H59        -2.7280   -1.9890    5.6450 hc        1 MOL      0.058233
    126 N11        -4.9520    0.0040    3.4090 n         1 MOL     -0.160141
    127 C39        -6.3480    0.0600    3.1260 c3        1 MOL     -0.563842
    128 C40        -6.7300   -0.3120    1.6830 c         1 MOL      0.752979
    129 O19        -7.0020    0.5360    0.8150 o         1 MOL     -0.530398
    130 C41        -6.9050    1.4880    3.4810 c3        1 MOL      0.460595
    131 C42        -6.8330    1.6360    4.9890 c3        1 MOL     -0.161687
    132 O20        -6.1660    2.5090    2.8210 oh        1 MOL     -0.595960
    133 H60        -4.5470    0.8650    3.7540 hn        1 MOL      0.252585
    134 H61        -6.7880   -0.7050    3.7750 h1        1 MOL      0.163134
    135 H62        -7.9210    1.6870    3.1290 h1        1 MOL     -0.004207
    136 H63        -6.1140    2.2670    1.8850 ho        1 MOL      0.375331
    137 H64        -5.8880    1.2080    5.2950 hc        1 MOL      0.043176
    138 H65        -6.8080    2.7130    5.1790 hc        1 MOL      0.043176
    139 H66        -7.6910    1.1990    5.5100 hc        1 MOL      0.043176
    140 N12        -6.7780   -1.6440    1.4480 n         1 MOL     -0.695007
    141 C43        -6.6910   -2.2770    0.0590 c3        1 MOL      0.339889
    142 C44        -5.4670   -1.8860   -0.8280 c         1 MOL      0.475256
    143 O21        -4.8590   -0.8210   -0.7190 o         1 MOL     -0.487944
    144 C45        -8.0800   -2.1470   -0.6110 c3        1 MOL     -0.452004
    145 C46        -9.3230   -2.3020    0.2650 c3        1 MOL     -0.064434
    146 C47       -10.5380   -2.3210   -0.6960 c3        1 MOL      0.074908
    147 C48       -11.7910   -2.1780    0.2460 c3        1 MOL      0.081467
    148 N13       -13.0530   -2.4720   -0.4040 n4        1 MOL     -0.173099
    149 H67        -6.5370   -2.1810    2.2700 hn        1 MOL      0.356590
    150 H68        -6.4970   -3.3270    0.2910 h1        1 MOL      0.047836
    151 H69        -8.1090   -2.7930   -1.4930 hc        1 MOL      0.143227
    152 H70        -8.0530   -1.1320   -0.9930 hc        1 MOL      0.143227
    153 H71        -9.3760   -1.3780    0.8530 hc        1 MOL      0.069413
    154 H72        -9.2980   -3.1810    0.9130 hc        1 MOL      0.069413
    155 H73       -10.6500   -3.2750   -1.2130 hc        1 MOL      0.015865
    156 H74       -10.6390   -1.4940   -1.3940 hc        1 MOL      0.015865
    157 H75       -11.7990   -1.1480    0.5850 hx        1 MOL      0.034741
    158 H76       -11.6610   -2.8180    1.1130 hx        1 MOL      0.034741
    159 H77       -13.8710   -2.2030    0.1330 hn        1 MOL      0.206050
    160 H78       -13.0560   -2.0250   -1.3150 hn        1 MOL      0.206050
    161 H79       -13.0000   -3.4680   -0.5380 hn        1 MOL      0.206050
    162 N14        -5.0360   -2.9290   -1.5860 n         1 MOL     -0.596469
    163 C49        -3.8540   -2.7820   -2.4100 c3        1 MOL      0.463890
    164 C50        -2.5150   -2.5860   -1.6080 c         1 MOL      0.347661
    165 O22        -1.8390   -1.5850   -1.7350 o         1 MOL     -0.627201
    166 C51        -3.7190   -3.9140   -3.3960 c3        1 MOL     -0.143383
    167 C52        -4.9890   -3.9950   -4.3250 c3        1 MOL     -0.225445
    168 C53        -4.7120   -5.0040   -5.4100 c         1 MOL      0.687454
    169 O23        -4.4770   -4.6240   -6.5900 o         1 MOL     -0.649332
    170 O24        -4.7240   -6.2210   -5.0560 o         1 MOL     -0.649332
    171 H80        -5.5260   -3.8070   -1.6350 hn        1 MOL      0.316931
    172 H81        -3.9050   -1.8940   -3.0460 h1        1 MOL     -0.055774
    173 H82        -3.5050   -4.9230   -3.0490 hc        1 MOL      0.085912
    174 H83        -2.8560   -3.5540   -3.9480 hc        1 MOL      0.085912
    175 H84        -5.1120   -3.0310   -4.8210 hc        1 MOL      0.025210
    176 H85        -5.9160   -4.1920   -3.7960 hc        1 MOL      0.025210
    177 N15        -2.0660   -3.4720   -0.7510 n         1 MOL     -0.202875
    178 C54        -2.6580   -4.7710   -0.4650 c3        1 MOL     -0.145900
    179 H86        -2.6790   -5.3690   -1.3770 h1        1 MOL      0.065154
    180 H87        -2.0630   -5.2830    0.2910 h1        1 MOL      0.065154
    181 H88        -3.6750   -4.6340   -0.0970 h1        1 MOL      0.065154
    182 H89        -1.2940   -3.1340   -0.2020 hn        1 MOL      0.268567
    183 Ca1        -0.2560    0.5700   -1.3510 Ca        1 MOL      1.843859
    184 O25        -3.0950    0.9750   -1.3480 oh        1 MOL     -0.885596
    185 H90        -3.7710    0.3480   -1.0910 ho        1 MOL      0.423156
    186 H91        -3.5350    1.5810   -1.9460 ho        1 MOL      0.423156
    187 O26         1.7530   -0.0870   -2.9440 oh        1 MOL     -0.885596
    188 H92         1.7800    0.5980   -3.6240 ho        1 MOL      0.423156
    189 H93         2.6210   -0.0630   -2.5420 ho        1 MOL      0.423156
    190 O27        -1.7470    0.3500   -3.9230 oh        1 MOL     -0.885596
    191 H94        -1.8050    0.5990   -4.8430 ho        1 MOL      0.423156
    192 H95        -2.4630   -0.2720   -3.7870 ho        1 MOL      0.423156
@<TRIPOS>BOND
     1    1    2 1   
     2    1    4 1   
     3    1    5 1   
     4    1    6 1   
     5    2    3 2   
     6    2    7 1   
     7    7    8 1   
     8    7   15 1   
     9    8    9 1   
    10    8   11 1   
    11    8   16 1   
    12    9   10 2   
    13    9   19 1   
    14   11   12 1   
    15   11   17 1   
    16   11   18 1   
    17   12   13 1   
    18   12   14 1   
    19   19   20 1   
    20   19   28 1   
    21   20   21 1   
    22   20   23 1   
    23   20   29 1   
    24   21   22 2   
    25   21   41 1   
    26   23   24 1   
    27   23   30 1   
    28   23   31 1   
    29   24   25 1   
    30   24   32 1   
    31   24   33 1   
    32   25   26 1   
    33   25   34 1   
    34   25   35 1   
    35   26   27 1   
    36   26   36 1   
    37   26   37 1   
    38   27   38 1   
    39   27   39 1   
    40   27   40 1   
    41   41   42 1   
    42   41   49 1   
    43   42   43 1   
    44   42   45 1   
    45   42   50 1   
    46   43   44 2   
    47   43   53 1   
    48   45   46 1   
    49   45   51 1   
    50   45   52 1   
    51   46   47 1   
    52   46   48 1   
    53   53   54 1   
    54   53   57 1   
    55   54   55 1   
    56   54   58 1   
    57   54   59 1   
    58   55   56 2   
    59   55   60 1   
    60   60   61 1   
    61   60   68 1   
    62   61   62 1   
    63   61   64 1   
    64   61   69 1   
    65   62   63 2   
    66   62   72 1   
    67   64   65 1   
    68   64   70 1   
    69   64   71 1   
    70   65   66 1   
    71   65   67 1   
    72   72   73 1   
    73   72   76 1   
    74   73   74 1   
    75   73   77 1   
    76   73   78 1   
    77   74   75 2   
    78   74   79 1   
    79   79   80 1   
    80   79   86 1   
    81   80   81 1   
    82   80   83 1   
    83   80   87 1   
    84   81   82 2   
    85   81   93 1   
    86   83   84 1   
    87   83   85 1   
    88   83   88 1   
    89   84   90 1   
    90   84   91 1   
    91   84   92 1   
    92   85   89 1   
    93   93   94 1   
    94   93  101 1   
    95   94   95 1   
    96   94   97 1   
    97   94  102 1   
    98   95   96 2   
    99   95  112 1   
   100   97   98 1   
   101   97   99 1   
   102   97  103 1   
   103   98  100 1   
   104   98  104 1   
   105   98  105 1   
   106   99  106 1   
   107   99  107 1   
   108   99  108 1   
   109  100  109 1   
   110  100  110 1   
   111  100  111 1   
   112  112  113 1   
   113  112  119 1   
   114  113  114 1   
   115  113  116 1   
   116  113  120 1   
   117  114  115 2   
   118  114  126 1   
   119  116  117 1   
   120  116  118 1   
   121  116  121 1   
   122  117  123 1   
   123  117  124 1   
   124  117  125 1   
   125  118  122 1   
   126  126  127 1   
   127  126  133 1   
   128  127  128 1   
   129  127  130 1   
   130  127  134 1   
   131  128  129 2   
   132  128  140 1   
   133  130  131 1   
   134  130  132 1   
   135  130  135 1   
   136  131  137 1   
   137  131  138 1   
   138  131  139 1   
   139  132  136 1   
   140  140  141 1   
   141  140  149 1   
   142  141  142 1   
   143  141  144 1   
   144  141  150 1   
   145  142  143 2   
   146  142  162 1   
   147  144  145 1   
   148  144  151 1   
   149  144  152 1   
   150  145  146 1   
   151  145  153 1   
   152  145  154 1   
   153  146  147 1   
   154  146  155 1   
   155  146  156 1   
   156  147  148 1   
   157  147  157 1   
   158  147  158 1   
   159  148  159 1   
   160  148  160 1   
   161  148  161 1   
   162  162  163 1   
   163  162  171 1   
   164  163  164 1   
   165  163  166 1   
   166  163  172 1   
   167  164  165 2   
   168  164  177 1   
   169  166  167 1   
   170  166  173 1   
   171  166  174 1   
   172  167  168 1   
   173  167  175 1   
   174  167  176 1   
   175  168  169 1   
   176  168  170 1   
   177  177  178 1   
   178  177  182 1   
   179  178  179 1   
   180  178  180 1   
   181  178  181 1   
   182  184  185 1   
   183  184  186 1   
   184  187  188 1   
   185  187  189 1   
   186  190  191 1   
   187  190  192 1   
@<TRIPOS>SUBSTRUCTURE
     1 MOL         1 TEMP              0 ****  ****    0 ROOT
