@<TRIPOS>MOLECULE
MOL
  189   185     1     0     0
SMALL
resp


@<TRIPOS>ATOM
      1 C1          4.3190    5.5990   -2.8050 c3        1 MOL     -0.308576
      2 C2          4.9870    4.5210   -1.8950 c         1 MOL      0.571462
      3 O1          4.2610    3.9290   -1.0800 o         1 MOL     -0.508988
      4 H1          3.4550    5.1650   -3.3080 hc        1 MOL      0.082879
      5 H2          3.9970    6.4430   -2.1940 hc        1 MOL      0.082879
      6 H3          5.0380    5.9430   -3.5490 hc        1 MOL      0.082879
      7 N1          6.2630    4.1340   -2.1580 n         1 MOL     -0.502806
      8 C3          6.8800    2.8620   -1.8730 c3        1 MOL      0.244667
      9 C4          5.8540    1.6530   -1.8090 c         1 MOL      0.441573
     10 O2          5.3090    1.3070   -0.7530 o         1 MOL     -0.572987
     11 C5          7.8060    2.9940   -0.6810 c3        1 MOL     -0.333825
     12 C6          7.3450    3.7070    0.5560 c         1 MOL      0.797925
     13 O3          6.3310    3.2020    1.0270 o         1 MOL     -0.729302
     14 O4          7.9040    4.7900    0.9430 o         1 MOL     -0.729302
     15 H4          6.7600    4.7460   -2.7770 hn        1 MOL      0.314195
     16 H5          7.3810    2.6180   -2.8180 h1        1 MOL     -0.004659
     17 H6          8.6100    3.5710   -1.1470 hc        1 MOL      0.046797
     18 H7          8.1920    2.0380   -0.3350 hc        1 MOL      0.046797
     19 N2          5.6610    0.9490   -2.9550 n         1 MOL     -0.555162
     20 C7          5.0010   -0.3960   -3.2340 c3        1 MOL      0.069684
     21 C8          5.7680   -1.5940   -2.5310 c         1 MOL      0.363331
     22 O5          6.0220   -2.6170   -3.1860 o         1 MOL     -0.556161
     23 C9          3.4760   -0.3220   -2.8910 c3        1 MOL      0.490640
     24 C10         2.7660   -1.6090   -3.2720 c3        1 MOL     -0.426871
     25 C11         2.6260    0.8400   -3.4570 c3        1 MOL     -0.143891
     26 C12         2.7720   -1.9550   -4.8230 c3        1 MOL     -0.328044
     27 H8          5.9090    1.4900   -3.7680 hn        1 MOL      0.286797
     28 H9          5.0770   -0.5410   -4.3120 h1        1 MOL      0.067426
     29 H10         3.3040   -0.1610   -1.8240 hc        1 MOL     -0.241325
     30 H11         1.7440   -1.6650   -2.9050 hc        1 MOL      0.238591
     31 H12         3.3500   -2.4050   -2.8140 hc        1 MOL      0.238591
     32 H13         2.8790    1.7900   -2.9960 hc        1 MOL      0.017179
     33 H14         2.9610    1.0670   -4.4690 hc        1 MOL      0.017179
     34 H15         1.5980    0.4930   -3.5130 hc        1 MOL      0.017179
     35 H16         2.2800   -1.1910   -5.4220 hc        1 MOL      0.071507
     36 H17         3.7820   -1.9160   -5.2440 hc        1 MOL      0.071507
     37 H18         2.2350   -2.9070   -4.8960 hc        1 MOL      0.071507
     38 N3          6.1150   -1.4120   -1.2510 n         1 MOL     -0.164885
     39 C13         7.1190   -2.2230   -0.5370 c3        1 MOL      0.140709
     40 C14         6.8890   -3.7280   -0.4520 c         1 MOL      0.477463
     41 O6          7.7800   -4.5160   -0.5240 o         1 MOL     -0.531183
     42 C15         7.2930   -1.4700    0.7920 c3        1 MOL     -0.604525
     43 C16         8.1010   -2.3020    1.8260 c         1 MOL      0.861794
     44 O7          7.5630   -2.9150    2.7850 o         1 MOL     -0.731226
     45 O8          9.3350   -2.2770    1.7290 o         1 MOL     -0.731226
     46 H19         5.8250   -0.5320   -0.8460 hn        1 MOL      0.265858
     47 H20         8.0240   -2.2260   -1.1380 h1        1 MOL      0.042211
     48 H21         6.3790   -1.2010    1.3380 hc        1 MOL      0.176034
     49 H22         7.7380   -0.4760    0.7030 hc        1 MOL      0.176034
     50 N4          5.6780   -4.1450   -0.0960 n         1 MOL     -0.362279
     51 C17         4.4930   -3.3600    0.2530 c3        1 MOL      0.190415
     52 C18         3.6130   -4.2210    1.0530 c         1 MOL      0.631997
     53 O9          3.5370   -5.4280    0.9120 o         1 MOL     -0.612639
     54 H23         5.4110   -5.1030    0.0350 hn        1 MOL      0.250067
     55 H24         3.9170   -3.0910   -0.6280 h1        1 MOL     -0.111659
     56 H25         4.8720   -2.4860    0.7800 h1        1 MOL     -0.111659
     57 N5          2.8360   -3.6030    1.9670 n         1 MOL     -0.365922
     58 C19         2.6920   -2.2290    2.4420 c3        1 MOL      0.243612
     59 C20         2.6310   -1.2110    1.3170 c         1 MOL      0.460440
     60 O10         3.5830   -0.4250    1.1890 o         1 MOL     -0.629023
     61 C21         3.6740   -1.9210    3.6070 c3        1 MOL     -0.334800
     62 C22         3.5680   -2.8720    4.7940 c         1 MOL      0.739220
     63 O11         2.6830   -3.7420    4.7870 o         1 MOL     -0.714893
     64 O12         4.2870   -2.6400    5.7830 o         1 MOL     -0.714893
     65 H26         2.1620   -4.2660    2.3180 hn        1 MOL      0.192526
     66 H27         1.7100   -2.0710    2.8920 h1        1 MOL      0.022540
     67 H28         3.4950   -0.8830    3.9030 hc        1 MOL      0.077196
     68 H29         4.6960   -1.9820    3.2550 hc        1 MOL      0.077196
     69 N6          1.5650   -1.0190    0.6280 n         1 MOL     -0.430996
     70 C23         0.2360   -1.6540    0.7220 c3        1 MOL     -0.022556
     71 C24        -0.0720   -2.7550   -0.3310 c         1 MOL      0.180337
     72 O13         0.6520   -2.9370   -1.2670 o         1 MOL     -0.446098
     73 H30         1.6960   -0.4500   -0.1940 hn        1 MOL      0.439476
     74 H31        -0.5130   -0.8600    0.6540 h1        1 MOL      0.085128
     75 H32         0.0340   -2.1090    1.6880 h1        1 MOL      0.085128
     76 N7         -1.1740   -3.4150   -0.2450 n         1 MOL     -0.176896
     77 C25        -1.7220   -4.4490   -1.1340 c3        1 MOL      0.013373
     78 C26        -2.2720   -3.8500   -2.5010 c         1 MOL      0.278855
     79 O14        -2.3500   -4.6010   -3.4990 o         1 MOL     -0.490639
     80 C27        -2.8090   -5.2540   -0.4960 c3        1 MOL      0.048690
     81 C28        -2.5880   -6.1820    0.6900 c3        1 MOL     -0.304201
     82 C29        -2.0300   -5.5190    1.9320 c         1 MOL      0.631296
     83 N8         -0.7550   -5.3730    2.0890 n         1 MOL     -0.731041
     84 O15        -2.7700   -5.0450    2.7520 o         1 MOL     -0.548620
     85 H33        -1.8020   -3.0750    0.4630 hn        1 MOL      0.248817
     86 H34        -0.9120   -5.1540   -1.3670 h1        1 MOL      0.120713
     87 H35        -3.1020   -5.8700   -1.3450 hc        1 MOL      0.031552
     88 H36        -3.6030   -4.6160   -0.1080 hc        1 MOL      0.031552
     89 H37        -1.8850   -6.9530    0.3790 hc        1 MOL      0.077928
     90 H38        -3.5280   -6.6680    0.9460 hc        1 MOL      0.077928
     91 H39        -0.1860   -5.6830    1.3030 hn        1 MOL      0.363988
     92 H40        -0.3330   -5.0360    2.9430 hn        1 MOL      0.363988
     93 N9         -2.7170   -2.5980   -2.5860 n         1 MOL     -0.162067
     94 C30        -3.1670   -1.9760   -3.8670 c3        1 MOL     -0.210246
     95 C31        -4.6260   -1.4560   -3.8480 c         1 MOL      0.526315
     96 O16        -5.1840   -1.2500   -4.9390 o         1 MOL     -0.570282
     97 C32        -2.1610   -0.8590   -4.2980 c3        1 MOL      0.154296
     98 C33        -0.9200   -1.4420   -5.0090 c3        1 MOL     -0.185749
     99 C34        -1.7900    0.1320   -3.2540 c3        1 MOL     -0.185749
    100 H41        -2.6930   -1.9960   -1.7690 hn        1 MOL      0.205618
    101 H42        -3.2070   -2.7120   -4.6740 h1        1 MOL      0.152517
    102 H43        -2.7070   -0.1820   -4.9510 hc        1 MOL      0.015159
    103 H44        -0.3230   -2.0870   -4.3680 hc        1 MOL      0.053248
    104 H45        -1.1300   -1.9810   -5.9290 hc        1 MOL      0.053248
    105 H46        -0.3180   -0.5740   -5.3050 hc        1 MOL      0.053248
    106 H47        -1.1120   -0.4160   -2.5980 hc        1 MOL      0.053248
    107 H48        -1.2920    1.0010   -3.6890 hc        1 MOL      0.053248
    108 H49        -2.6520    0.5350   -2.7260 hc        1 MOL      0.053248
    109 N10        -5.1970   -1.1280   -2.7190 n         1 MOL     -0.210438
    110 C35        -6.5440   -0.5060   -2.6660 c3        1 MOL     -0.092758
    111 C36        -6.5540    0.7390   -1.6710 c         1 MOL      0.584696
    112 O17        -7.1550    1.7910   -2.0160 o         1 MOL     -0.559499
    113 C37        -7.6190   -1.4960   -2.2420 c3        1 MOL     -0.026335
    114 C38        -7.3110   -2.4350   -1.1440 c         1 MOL      0.461779
    115 N11        -7.9830   -3.5050   -1.0640 n         1 MOL     -0.641999
    116 O18        -6.4370   -2.2000   -0.3030 o         1 MOL     -0.472314
    117 H50        -4.8020   -1.5120   -1.8680 hn        1 MOL      0.102874
    118 H51        -6.6980   -0.1380   -3.6830 h1        1 MOL      0.114830
    119 H52        -7.9290   -2.1080   -3.0920 hc        1 MOL      0.038953
    120 H53        -8.5390   -0.9760   -2.0000 hc        1 MOL      0.038953
    121 H54        -8.4530   -3.9050   -1.8660 hn        1 MOL      0.343139
    122 H55        -7.6790   -4.0620   -0.2840 hn        1 MOL      0.343139
    123 N12        -5.9470    0.5630   -0.4870 n         1 MOL     -0.519910
    124 C39        -6.1440    1.5230    0.5680 c3        1 MOL     -0.179303
    125 C40        -4.8170    2.2030    0.9160 c         1 MOL      0.885927
    126 O19        -3.7700    1.5850    0.7350 o         1 MOL     -0.604448
    127 C41        -6.7300    0.8840    1.7850 c3        1 MOL     -0.054541
    128 C42        -8.0320    0.1260    1.6550 ca        1 MOL      0.059089
    129 C43        -8.2500   -1.1360    2.2440 ca        1 MOL     -0.159181
    130 C44        -9.1550    0.6320    0.9120 ca        1 MOL     -0.159181
    131 C45        -9.3610   -1.9330    1.8900 ca        1 MOL     -0.190442
    132 C46       -10.2700   -0.1570    0.5620 ca        1 MOL     -0.190442
    133 C47       -10.4150   -1.4280    1.0950 ca        1 MOL      0.208683
    134 O20       -11.5560   -2.1570    0.8990 oh        1 MOL     -0.459873
    135 H56        -5.5080   -0.3270   -0.3240 hn        1 MOL      0.354873
    136 H57        -6.8280    2.3170    0.2630 h1        1 MOL      0.083370
    137 H58        -6.9890    1.5910    2.5870 hc        1 MOL      0.094637
    138 H59        -5.9530    0.2670    2.2310 hc        1 MOL      0.094637
    139 H60        -7.3600   -1.4330    2.7840 ha        1 MOL      0.121237
    140 H61        -9.1740    1.6380    0.5240 ha        1 MOL      0.121237
    141 H62        -9.3830   -2.9500    2.2300 ha        1 MOL      0.124852
    142 H63       -11.0440    0.3390   -0.0120 ha        1 MOL      0.124852
    143 H64       -12.1660   -1.6010    0.4030 ho        1 MOL      0.332465
    144 N13        -4.8870    3.3740    1.4880 n         1 MOL     -0.832622
    145 C48        -3.8910    4.1350    2.2550 c3        1 MOL      0.272520
    146 C49        -2.7200    4.6710    1.4270 c         1 MOL      0.269015
    147 O21        -2.0060    5.5300    1.9660 o         1 MOL     -0.492465
    148 C50        -3.4890    3.3780    3.5640 c3        1 MOL     -0.037983
    149 C51        -4.6460    3.3930    4.5850 c3        1 MOL     -0.189337
    150 C52        -4.3630    2.3600    5.6230 c         1 MOL      0.691184
    151 O22        -5.2660    1.6120    6.0340 o         1 MOL     -0.713419
    152 O23        -3.1960    2.3380    6.1420 o         1 MOL     -0.713419
    153 H65        -5.8290    3.6370    1.7340 hn        1 MOL      0.365865
    154 H66        -4.4510    5.0260    2.5500 h1        1 MOL      0.041692
    155 H67        -2.6710    3.9300    4.0120 hc        1 MOL      0.053037
    156 H68        -3.1390    2.3850    3.2810 hc        1 MOL      0.053037
    157 H69        -5.5980    3.0770    4.1380 hc        1 MOL      0.000084
    158 H70        -4.7820    4.4440    4.8220 hc        1 MOL      0.000084
    159 N14        -2.5440    4.2690    0.1530 n         1 MOL     -0.150060
    160 C53        -1.4850    4.6450   -0.7420 c3        1 MOL     -0.099406
    161 C54        -1.9710    5.6910   -1.7990 c         1 MOL      0.372649
    162 O24        -1.1370    6.4800   -2.2920 o         1 MOL     -0.518551
    163 C55        -0.9350    3.3920   -1.4680 c3        1 MOL      0.140894
    164 C56        -0.4550    2.2280   -0.5570 c3        1 MOL      0.313367
    165 C57         1.0020    2.4510   -0.0820 c         1 MOL      0.624130
    166 O25         1.9130    1.6580   -0.3790 o         1 MOL     -0.756374
    167 O26         1.3740    3.4920    0.5240 o         1 MOL     -0.756374
    168 H71        -3.1790    3.5980   -0.2590 hn        1 MOL      0.220162
    169 H72        -0.6030    5.0190   -0.2100 h1        1 MOL      0.159433
    170 H73        -0.2250    3.5810   -2.2730 hc        1 MOL     -0.043235
    171 H74        -1.8180    2.9960   -1.9810 hc        1 MOL     -0.043235
    172 H75        -0.5910    1.2490   -1.0100 hc        1 MOL     -0.130212
    173 H76        -1.1130    2.2220    0.3080 hc        1 MOL     -0.130212
    174 N15        -3.2800    5.8670   -1.9750 n         1 MOL     -0.138594
    175 C58        -3.8640    6.8210   -2.8150 c3        1 MOL     -0.283291
    176 H77        -4.7390    6.3890   -3.3010 h1        1 MOL      0.107200
    177 H78        -4.1680    7.6870   -2.2270 h1        1 MOL      0.107200
    178 H79        -3.1440    7.1290   -3.5720 h1        1 MOL      0.107200
    179 H80        -3.8600    5.2690   -1.3990 hn        1 MOL      0.168024
    180 Ca1         3.7880    2.2850    1.1390 Ca        1 MOL      1.792147
    181 O27         4.9780    1.0370    3.2030 oh        1 MOL     -0.835922
    182 H81         4.6990    0.1510    3.4240 ho        1 MOL      0.413550
    183 H82         5.8740    1.1000    3.5560 ho        1 MOL      0.413550
    184 O28         4.3060    4.2020    3.0660 oh        1 MOL     -0.835922
    185 H83         4.6060    4.1020    3.9630 ho        1 MOL      0.413550
    186 H84         3.8910    5.0600    3.0470 ho        1 MOL      0.413550
    187 O29         2.1410    1.7110    3.3520 oh        1 MOL     -0.835922
    188 H85         2.2750    1.7940    4.2960 ho        1 MOL      0.413550
    189 H86         1.1980    1.8400    3.2360 ho        1 MOL      0.413550
@<TRIPOS>BOND
     1    1    2 1   
     2    1    4 1   
     3    1    5 1   
     4    1    6 1   
     5    2    3 2   
     6    2    7 1   
     7    7    8 1   
     8    7   15 1   
     9    8    9 1   
    10    8   11 1   
    11    8   16 1   
    12    9   10 2   
    13    9   19 1   
    14   11   12 1   
    15   11   17 1   
    16   11   18 1   
    17   12   13 1   
    18   12   14 1   
    19   19   20 1   
    20   19   27 1   
    21   20   21 1   
    22   20   23 1   
    23   20   28 1   
    24   21   22 2   
    25   21   38 1   
    26   23   24 1   
    27   23   25 1   
    28   23   29 1   
    29   24   26 1   
    30   24   30 1   
    31   24   31 1   
    32   25   32 1   
    33   25   33 1   
    34   25   34 1   
    35   26   35 1   
    36   26   36 1   
    37   26   37 1   
    38   38   39 1   
    39   38   46 1   
    40   39   40 1   
    41   39   42 1   
    42   39   47 1   
    43   40   41 2   
    44   40   50 1   
    45   42   43 1   
    46   42   48 1   
    47   42   49 1   
    48   43   44 1   
    49   43   45 1   
    50   50   51 1   
    51   50   54 1   
    52   51   52 1   
    53   51   55 1   
    54   51   56 1   
    55   52   53 2   
    56   52   57 1   
    57   57   58 1   
    58   57   65 1   
    59   58   59 1   
    60   58   61 1   
    61   58   66 1   
    62   59   60 2   
    63   59   69 1   
    64   61   62 1   
    65   61   67 1   
    66   61   68 1   
    67   62   63 1   
    68   62   64 1   
    69   69   70 1   
    70   69   73 1   
    71   70   71 1   
    72   70   74 1   
    73   70   75 1   
    74   71   72 2   
    75   71   76 1   
    76   76   77 1   
    77   76   85 1   
    78   77   78 1   
    79   77   80 1   
    80   77   86 1   
    81   78   79 2   
    82   78   93 1   
    83   80   81 1   
    84   80   87 1   
    85   80   88 1   
    86   81   82 1   
    87   81   89 1   
    88   81   90 1   
    89   82   83 1   
    90   82   84 2   
    91   83   91 1   
    92   83   92 1   
    93   93   94 1   
    94   93  100 1   
    95   94   95 1   
    96   94   97 1   
    97   94  101 1   
    98   95   96 2   
    99   95  109 1   
   100   97   98 1   
   101   97   99 1   
   102   97  102 1   
   103   98  103 1   
   104   98  104 1   
   105   98  105 1   
   106   99  106 1   
   107   99  107 1   
   108   99  108 1   
   109  109  110 1   
   110  109  117 1   
   111  110  111 1   
   112  110  113 1   
   113  110  118 1   
   114  111  112 2   
   115  111  123 1   
   116  113  114 1   
   117  113  119 1   
   118  113  120 1   
   119  114  115 1   
   120  114  116 2   
   121  115  121 1   
   122  115  122 1   
   123  123  124 1   
   124  123  135 1   
   125  124  125 1   
   126  124  127 1   
   127  124  136 1   
   128  125  126 2   
   129  125  144 1   
   130  127  128 1   
   131  127  137 1   
   132  127  138 1   
   133  128  129 ar  
   134  128  130 ar  
   135  129  131 ar  
   136  129  139 1   
   137  130  132 ar  
   138  130  140 1   
   139  131  133 ar  
   140  131  141 1   
   141  132  133 ar  
   142  132  142 1   
   143  133  134 1   
   144  134  143 1   
   145  144  145 1   
   146  144  153 1   
   147  145  146 1   
   148  145  148 1   
   149  145  154 1   
   150  146  147 2   
   151  146  159 1   
   152  148  149 1   
   153  148  155 1   
   154  148  156 1   
   155  149  150 1   
   156  149  157 1   
   157  149  158 1   
   158  150  151 1   
   159  150  152 1   
   160  159  160 1   
   161  159  168 1   
   162  160  161 1   
   163  160  163 1   
   164  160  169 1   
   165  161  162 2   
   166  161  174 1   
   167  163  164 1   
   168  163  170 1   
   169  163  171 1   
   170  164  165 1   
   171  164  172 1   
   172  164  173 1   
   173  165  166 1   
   174  165  167 1   
   175  174  175 1   
   176  174  179 1   
   177  175  176 1   
   178  175  177 1   
   179  175  178 1   
   180  181  182 1   
   181  181  183 1   
   182  184  185 1   
   183  184  186 1   
   184  187  188 1   
   185  187  189 1   
@<TRIPOS>SUBSTRUCTURE
     1 MOL         1 TEMP              0 ****  ****    0 ROOT
