@<TRIPOS>MOLECULE
MOL
  192   187     1     0     0
SMALL
resp


@<TRIPOS>ATOM
      1 C1        -10.0980   -0.6320   -2.6100 c3        1 MOL     -0.449675
      2 C2         -8.6600   -0.5560   -1.9740 c         1 MOL      0.658441
      3 O1         -7.5910   -0.6700   -2.6110 o         1 MOL     -0.609629
      4 H1        -10.1830    0.1080   -3.4050 hc        1 MOL      0.125101
      5 H2        -10.2620   -1.6280   -3.0210 hc        1 MOL      0.125101
      6 H3        -10.8470   -0.4270   -1.8430 hc        1 MOL      0.125101
      7 N1         -8.6270   -0.3850   -0.6130 n         1 MOL     -0.557809
      8 C3         -7.4980   -0.2690    0.2520 c3        1 MOL      0.259025
      9 C4         -7.0910   -1.6050    0.6330 c         1 MOL      0.344839
     10 O2         -7.2600   -1.9570    1.7940 o         1 MOL     -0.465302
     11 C5         -7.8000    0.6470    1.4380 c3        1 MOL     -0.195999
     12 C6         -9.2420    0.7960    2.0360 c         1 MOL      0.699554
     13 O3         -9.7970    1.8750    2.1710 o         1 MOL     -0.660385
     14 O4         -9.9530   -0.2340    2.1240 o         1 MOL     -0.660385
     15 H4         -9.5130   -0.3060   -0.1440 hn        1 MOL      0.293705
     16 H5         -6.6900    0.1320   -0.3440 h1        1 MOL      0.051841
     17 H6         -7.4360    1.6400    1.1630 hc        1 MOL      0.056154
     18 H7         -7.1900    0.4230    2.3070 hc        1 MOL      0.056154
     19 N2         -6.5980   -2.4280   -0.3250 n         1 MOL     -0.309443
     20 C7         -6.0510   -3.7650   -0.1410 c3        1 MOL      0.256105
     21 C8         -4.6670   -3.9650    0.5340 c         1 MOL      0.516951
     22 O5         -4.5250   -4.9140    1.2470 o         1 MOL     -0.549928
     23 C9         -6.1210   -4.4690   -1.5380 c3        1 MOL     -0.322735
     24 C10        -7.4320   -4.5990   -2.2810 c3        1 MOL      0.190572
     25 C11        -8.4980   -5.4130   -1.5210 c3        1 MOL     -0.326156
     26 C12        -9.8090   -5.3470   -2.3200 c3        1 MOL      0.242901
     27 N3        -10.6130   -6.4680   -1.8910 n4        1 MOL     -0.413510
     28 H8         -6.6030   -2.0980   -1.2780 hn        1 MOL      0.201140
     29 H9         -6.7640   -4.2050    0.5520 h1        1 MOL      0.012614
     30 H10        -5.7160   -5.4700   -1.4000 hc        1 MOL      0.073777
     31 H11        -5.4500   -3.8840   -2.1750 hc        1 MOL      0.073777
     32 H12        -7.2670   -4.9500   -3.2950 hc        1 MOL      0.001699
     33 H13        -7.8400   -3.6050   -2.4540 hc        1 MOL      0.001699
     34 H14        -8.7650   -5.1030   -0.5070 hc        1 MOL      0.112600
     35 H15        -8.1360   -6.4420   -1.5020 hc        1 MOL      0.112600
     36 H16        -9.5750   -5.3870   -3.3880 hx        1 MOL      0.028587
     37 H17       -10.3700   -4.4290   -2.1530 hx        1 MOL      0.028587
     38 H18       -11.5390   -6.5540   -2.2690 hn        1 MOL      0.335739
     39 H19       -10.1330   -7.3530   -2.0040 hn        1 MOL      0.335739
     40 H20       -10.8450   -6.2940   -0.9180 hn        1 MOL      0.335739
     41 N4         -3.6900   -3.0630    0.3750 n         1 MOL     -0.419745
     42 C13        -3.6430   -1.9630   -0.5910 c3        1 MOL      0.021285
     43 C14        -3.8600   -0.6410    0.1980 c         1 MOL      0.278650
     44 O6         -3.7490   -0.6270    1.4510 o         1 MOL     -0.408721
     45 C15        -2.2580   -1.9610   -1.2830 c3        1 MOL     -0.276567
     46 C16        -0.9370   -1.9990   -0.4450 c         1 MOL      0.688479
     47 O7         -0.8470   -1.2230    0.5360 o         1 MOL     -0.643610
     48 O8         -0.0710   -2.8420   -0.8000 o         1 MOL     -0.643610
     49 H21        -2.8680   -3.1410    0.9420 hn        1 MOL      0.360980
     50 H22        -4.3920   -1.9830   -1.3790 h1        1 MOL      0.095670
     51 H23        -2.2090   -1.1470   -2.0100 hc        1 MOL      0.072498
     52 H24        -2.1450   -2.8360   -1.9260 hc        1 MOL      0.072498
     53 N5         -3.9700    0.4910   -0.4960 n         1 MOL     -0.333123
     54 C17        -4.2180    1.8930   -0.0000 c3        1 MOL     -0.084018
     55 C18        -2.9440    2.5650    0.5340 c         1 MOL      0.899207
     56 O9         -1.9210    1.9980    0.5450 o         1 MOL     -0.650803
     57 H25        -3.9100    0.3170   -1.4920 hn        1 MOL      0.269071
     58 H26        -4.9630    1.8390    0.7970 h1        1 MOL      0.033624
     59 H27        -4.5450    2.4410   -0.8770 h1        1 MOL      0.033624
     60 N6         -3.1860    3.7980    1.0220 n         1 MOL     -0.577234
     61 C19        -2.2300    4.7090    1.6730 c3        1 MOL      0.242634
     62 C20        -2.6980    6.1410    1.5850 c         1 MOL      0.480669
     63 O10        -3.9070    6.4280    1.4500 o         1 MOL     -0.530935
     64 C21        -2.1130    4.3900    3.1830 c3        1 MOL     -0.328952
     65 C22        -1.5260    3.0370    3.4980 c         1 MOL      0.643317
     66 O11        -2.1830    2.1880    4.1120 o         1 MOL     -0.649596
     67 O12        -0.4410    2.7580    2.9820 o         1 MOL     -0.649596
     68 H28        -4.1340    4.1460    1.0410 hn        1 MOL      0.285332
     69 H29        -1.2480    4.5590    1.2310 h1        1 MOL      0.030612
     70 H30        -3.0760    4.6310    3.6420 hc        1 MOL      0.090362
     71 H31        -1.4660    5.1310    3.6590 hc        1 MOL      0.090362
     72 N7         -1.8280    7.1400    1.5170 n         1 MOL     -0.479081
     73 C23        -0.3720    7.0310    1.7410 c3        1 MOL      0.085857
     74 C24         0.4490    6.4670    0.5580 c         1 MOL      0.725322
     75 O13         0.0130    6.6950   -0.5840 o         1 MOL     -0.562550
     76 H32        -2.2170    7.9990    1.1700 hn        1 MOL      0.329056
     77 H33        -0.1460    6.4600    2.6460 h1        1 MOL      0.019065
     78 H34         0.0280    8.0330    1.9110 h1        1 MOL      0.019065
     79 N8          1.6070    5.8750    0.8660 n         1 MOL     -0.746018
     80 C25         2.3290    5.1610   -0.1600 c3        1 MOL      0.087528
     81 C26         1.4740    4.0240   -0.6990 c         1 MOL      0.562581
     82 O14         0.8450    3.3440    0.1050 o         1 MOL     -0.651600
     83 C27         3.5910    4.5830    0.3700 c3        1 MOL      0.489858
     84 C28         4.6570    5.5130    0.9100 c3        1 MOL     -0.309610
     85 O15         4.3770    3.9160   -0.6410 oh        1 MOL     -0.674732
     86 H35         1.7970    5.7870    1.8520 hn        1 MOL      0.347218
     87 H36         2.6180    5.8390   -0.9650 h1        1 MOL      0.094255
     88 H37         3.3860    3.8550    1.1580 h1        1 MOL     -0.017250
     89 H38         5.0930    3.4520   -0.2090 ho        1 MOL      0.391706
     90 H39         4.4070    6.0230    1.8350 hc        1 MOL      0.075240
     91 H40         5.5450    4.9800    1.2530 hc        1 MOL      0.075240
     92 H41         4.9380    6.1810    0.0940 hc        1 MOL      0.075240
     93 N9          1.4540    3.7720   -2.0040 n         1 MOL     -0.634517
     94 C29         0.9980    2.5950   -2.7300 c3        1 MOL      0.047042
     95 C30         1.5610    1.2770   -2.2070 c         1 MOL      0.800785
     96 O16         1.3750    0.9000   -1.0390 o         1 MOL     -0.683647
     97 C31        -0.5860    2.5440   -2.8170 c3        1 MOL      0.364221
     98 C32        -1.2900    3.9740   -2.9180 c3        1 MOL      0.009922
     99 C33        -0.9970    1.5830   -3.9190 c3        1 MOL     -0.539344
    100 C34        -2.8350    3.8930   -3.1080 c3        1 MOL     -0.336627
    101 H42         1.9010    4.4630   -2.5870 hn        1 MOL      0.327484
    102 H43         1.2780    2.7790   -3.7720 h1        1 MOL      0.040592
    103 H44        -0.9420    2.0940   -1.8920 hc        1 MOL     -0.067470
    104 H45        -0.8900    4.4810   -3.7940 hc        1 MOL      0.018180
    105 H46        -1.1220    4.6350   -2.0710 hc        1 MOL      0.018180
    106 H47        -0.7660    2.0310   -4.8920 hc        1 MOL      0.124812
    107 H48        -0.4840    0.6490   -3.6690 hc        1 MOL      0.124812
    108 H49        -2.0350    1.2700   -3.8580 hc        1 MOL      0.124812
    109 H50        -3.3660    4.7560   -2.7020 hc        1 MOL      0.092677
    110 H51        -3.2300    3.4030   -3.9940 hc        1 MOL      0.092677
    111 H52        -3.1280    3.2640   -2.2700 hc        1 MOL      0.092677
    112 N10         2.2540    0.5540   -3.0640 n         1 MOL     -0.635202
    113 C35         2.6940   -0.8690   -2.8310 c3        1 MOL      0.076783
    114 C36         4.2070   -0.9850   -3.0830 c         1 MOL      0.543194
    115 O17         4.6990   -2.0920   -3.1560 o         1 MOL     -0.573292
    116 C37         1.9060   -2.0030   -3.5550 c3        1 MOL      0.339737
    117 C38         2.0340   -1.9410   -5.0670 c3        1 MOL     -0.297565
    118 O18         0.5350   -1.8670   -3.2830 oh        1 MOL     -0.580558
    119 H53         2.3750    0.9280   -3.9950 hn        1 MOL      0.297618
    120 H54         2.5670   -1.2130   -1.8050 h1        1 MOL      0.092420
    121 H55         2.2530   -2.9620   -3.1800 h1        1 MOL      0.029190
    122 H56         0.4260   -2.1140   -2.3600 ho        1 MOL      0.342186
    123 H57         3.0910   -1.9170   -5.3630 hc        1 MOL      0.072789
    124 H58         1.6850   -2.8540   -5.5590 hc        1 MOL      0.072789
    125 H59         1.5610   -1.0750   -5.5110 hc        1 MOL      0.072789
    126 N11         4.9850    0.1000   -2.9300 n         1 MOL     -0.400973
    127 C39         6.4850    0.0840   -2.9830 c3        1 MOL      0.178502
    128 C40         7.0370   -0.3350   -1.6040 c         1 MOL      0.492055
    129 O19         7.4980    0.4590   -0.8080 o         1 MOL     -0.511078
    130 C41         7.0880    1.3480   -3.5350 c3        1 MOL      0.237101
    131 C42         8.6070    1.1600   -3.8040 c3        1 MOL     -0.435706
    132 O20         6.5020    1.6150   -4.8240 oh        1 MOL     -0.658454
    133 H60         4.5630    0.9930   -2.7300 hn        1 MOL      0.266096
    134 H61         6.8080   -0.6880   -3.6750 h1        1 MOL      0.057068
    135 H62         6.8660    2.1240   -2.7960 h1        1 MOL      0.046236
    136 H63         7.0960    2.1550   -5.3580 ho        1 MOL      0.423169
    137 H64         8.9900    2.1050   -4.1670 hc        1 MOL      0.116632
    138 H65         9.1290    0.9010   -2.8800 hc        1 MOL      0.116632
    139 H66         8.7240    0.3600   -4.5280 hc        1 MOL      0.116632
    140 N12         6.8160   -1.6580   -1.4010 n         1 MOL     -0.656180
    141 C43         6.6640   -2.2670   -0.0370 c3        1 MOL      0.483029
    142 C44         5.4140   -1.7630    0.7050 c         1 MOL      0.284418
    143 O21         4.9910   -0.5540    0.5090 o         1 MOL     -0.481473
    144 C45         7.9530   -2.2420    0.6720 c3        1 MOL     -0.281728
    145 C46         8.9380   -3.2290    0.0430 c3        1 MOL      0.114226
    146 C47        10.2320   -3.2880    0.9190 c3        1 MOL      0.069519
    147 C48        11.4070   -4.1710    0.4230 c3        1 MOL     -0.070026
    148 N13        12.1680   -3.4100   -0.6210 n4        1 MOL     -0.179058
    149 H67         6.5330   -2.2130   -2.1920 hn        1 MOL      0.302690
    150 H68         6.4890   -3.3250   -0.2510 h1        1 MOL      0.004078
    151 H69         7.7490   -2.6140    1.6750 hc        1 MOL      0.082159
    152 H70         8.3730   -1.2340    0.7330 hc        1 MOL      0.082159
    153 H71         9.2410   -2.9390   -0.9630 hc        1 MOL     -0.030541
    154 H72         8.4530   -4.2050    0.0320 hc        1 MOL     -0.030541
    155 H73         9.9320   -3.5280    1.9350 hc        1 MOL      0.011832
    156 H74        10.6260   -2.2760    1.0160 hc        1 MOL      0.011832
    157 H75        11.1970   -5.2170    0.2080 hx        1 MOL      0.101504
    158 H76        12.0040   -4.2890    1.3220 hx        1 MOL      0.101504
    159 H77        12.7130   -2.6740   -0.1920 hn        1 MOL      0.197244
    160 H78        12.8450   -3.9230   -1.1570 hn        1 MOL      0.197244
    161 H79        11.5720   -2.9240   -1.2620 hn        1 MOL      0.197244
    162 N14         4.9200   -2.6140    1.6820 n         1 MOL     -0.389368
    163 C49         3.9050   -2.2730    2.5620 c3        1 MOL      0.300836
    164 C50         2.5370   -2.2640    1.8200 c         1 MOL      0.392129
    165 O22         1.9600   -1.2420    1.8270 o         1 MOL     -0.559288
    166 C51         3.8110   -3.3030    3.6650 c3        1 MOL     -0.120641
    167 C52         4.6510   -3.0160    4.9330 c3        1 MOL     -0.327103
    168 C53         4.8600   -4.2530    5.8170 c         1 MOL      0.752414
    169 O23         5.8010   -5.0090    5.6100 o         1 MOL     -0.672611
    170 O24         4.0300   -4.5260    6.6930 o         1 MOL     -0.672611
    171 H80         5.5460   -3.4050    1.7350 hn        1 MOL      0.250675
    172 H81         4.1050   -1.2720    2.9510 h1        1 MOL      0.052070
    173 H82         4.1560   -4.2720    3.3090 hc        1 MOL      0.088785
    174 H83         2.7610   -3.3610    3.9470 hc        1 MOL      0.088785
    175 H84         4.1730   -2.2740    5.5790 hc        1 MOL      0.053794
    176 H85         5.5860   -2.5640    4.6210 hc        1 MOL      0.053794
    177 N15         2.2030   -3.1240    0.8720 n         1 MOL     -0.327021
    178 C54         2.7430   -4.4840    0.5830 c3        1 MOL      0.006413
    179 H86         3.5500   -4.4070   -0.1450 h1        1 MOL      0.023198
    180 H87         3.1260   -4.9260    1.5030 h1        1 MOL      0.023198
    181 H88         1.9500   -5.1130    0.1800 h1        1 MOL      0.023198
    182 H89         1.4780   -2.7620    0.2690 hn        1 MOL      0.310946
    183 Ca1         0.4510    1.0130    1.3860 Ca        1 MOL      1.783428
    184 O25         1.3210    0.9980    4.0080 oh        1 MOL     -0.864038
    185 H90         1.5550    0.3920    4.7090 ho        1 MOL      0.411377
    186 H91         0.6960    1.6020    4.4120 ho        1 MOL      0.411377
    187 O26        -1.5340   -0.2330    2.9870 oh        1 MOL     -0.864038
    188 H92        -2.0050    0.2910    3.6300 ho        1 MOL      0.411377
    189 H93        -2.1480   -0.3400    2.2670 ho        1 MOL      0.411377
    190 O27         3.1730    1.1480    1.6510 oh        1 MOL     -0.864038
    191 H94         3.6020    0.4820    1.1120 ho        1 MOL      0.411377
    192 H95         3.8720    1.7410    1.8990 ho        1 MOL      0.411377
@<TRIPOS>BOND
     1    1    2 1   
     2    1    4 1   
     3    1    5 1   
     4    1    6 1   
     5    2    3 2   
     6    2    7 1   
     7    7    8 1   
     8    7   15 1   
     9    8    9 1   
    10    8   11 1   
    11    8   16 1   
    12    9   10 2   
    13    9   19 1   
    14   11   12 1   
    15   11   17 1   
    16   11   18 1   
    17   12   13 1   
    18   12   14 1   
    19   19   20 1   
    20   19   28 1   
    21   20   21 1   
    22   20   23 1   
    23   20   29 1   
    24   21   22 2   
    25   21   41 1   
    26   23   24 1   
    27   23   30 1   
    28   23   31 1   
    29   24   25 1   
    30   24   32 1   
    31   24   33 1   
    32   25   26 1   
    33   25   34 1   
    34   25   35 1   
    35   26   27 1   
    36   26   36 1   
    37   26   37 1   
    38   27   38 1   
    39   27   39 1   
    40   27   40 1   
    41   41   42 1   
    42   41   49 1   
    43   42   43 1   
    44   42   45 1   
    45   42   50 1   
    46   43   44 2   
    47   43   53 1   
    48   45   46 1   
    49   45   51 1   
    50   45   52 1   
    51   46   47 1   
    52   46   48 1   
    53   53   54 1   
    54   53   57 1   
    55   54   55 1   
    56   54   58 1   
    57   54   59 1   
    58   55   56 2   
    59   55   60 1   
    60   60   61 1   
    61   60   68 1   
    62   61   62 1   
    63   61   64 1   
    64   61   69 1   
    65   62   63 2   
    66   62   72 1   
    67   64   65 1   
    68   64   70 1   
    69   64   71 1   
    70   65   66 1   
    71   65   67 1   
    72   72   73 1   
    73   72   76 1   
    74   73   74 1   
    75   73   77 1   
    76   73   78 1   
    77   74   75 2   
    78   74   79 1   
    79   79   80 1   
    80   79   86 1   
    81   80   81 1   
    82   80   83 1   
    83   80   87 1   
    84   81   82 2   
    85   81   93 1   
    86   83   84 1   
    87   83   85 1   
    88   83   88 1   
    89   84   90 1   
    90   84   91 1   
    91   84   92 1   
    92   85   89 1   
    93   93   94 1   
    94   93  101 1   
    95   94   95 1   
    96   94   97 1   
    97   94  102 1   
    98   95   96 2   
    99   95  112 1   
   100   97   98 1   
   101   97   99 1   
   102   97  103 1   
   103   98  100 1   
   104   98  104 1   
   105   98  105 1   
   106   99  106 1   
   107   99  107 1   
   108   99  108 1   
   109  100  109 1   
   110  100  110 1   
   111  100  111 1   
   112  112  113 1   
   113  112  119 1   
   114  113  114 1   
   115  113  116 1   
   116  113  120 1   
   117  114  115 2   
   118  114  126 1   
   119  116  117 1   
   120  116  118 1   
   121  116  121 1   
   122  117  123 1   
   123  117  124 1   
   124  117  125 1   
   125  118  122 1   
   126  126  127 1   
   127  126  133 1   
   128  127  128 1   
   129  127  130 1   
   130  127  134 1   
   131  128  129 2   
   132  128  140 1   
   133  130  131 1   
   134  130  132 1   
   135  130  135 1   
   136  131  137 1   
   137  131  138 1   
   138  131  139 1   
   139  132  136 1   
   140  140  141 1   
   141  140  149 1   
   142  141  142 1   
   143  141  144 1   
   144  141  150 1   
   145  142  143 2   
   146  142  162 1   
   147  144  145 1   
   148  144  151 1   
   149  144  152 1   
   150  145  146 1   
   151  145  153 1   
   152  145  154 1   
   153  146  147 1   
   154  146  155 1   
   155  146  156 1   
   156  147  148 1   
   157  147  157 1   
   158  147  158 1   
   159  148  159 1   
   160  148  160 1   
   161  148  161 1   
   162  162  163 1   
   163  162  171 1   
   164  163  164 1   
   165  163  166 1   
   166  163  172 1   
   167  164  165 2   
   168  164  177 1   
   169  166  167 1   
   170  166  173 1   
   171  166  174 1   
   172  167  168 1   
   173  167  175 1   
   174  167  176 1   
   175  168  169 1   
   176  168  170 1   
   177  177  178 1   
   178  177  182 1   
   179  178  179 1   
   180  178  180 1   
   181  178  181 1   
   182  184  185 1   
   183  184  186 1   
   184  187  188 1   
   185  187  189 1   
   186  190  191 1   
   187  190  192 1   
@<TRIPOS>SUBSTRUCTURE
     1 MOL         1 TEMP              0 ****  ****    0 ROOT
