@<TRIPOS>MOLECULE
MOL
  198   191     1     0     0
SMALL
resp


@<TRIPOS>ATOM
      1 C1         -1.0070   -4.3730    2.1140 c3        1 MOL     -0.039766
      2 C2          0.2430   -4.4590    1.1270 c         1 MOL      0.525980
      3 O1          1.1920   -3.7710    1.3290 o         1 MOL     -0.503132
      4 H1         -0.9220   -5.1490    2.8750 hc        1 MOL     -0.026256
      5 H2         -1.0240   -3.3950    2.5950 hc        1 MOL     -0.026256
      6 H3         -1.9270   -4.5180    1.5490 hc        1 MOL     -0.026256
      7 N1          0.2620   -5.4350    0.2330 n         1 MOL     -0.339185
      8 C3          1.2220   -5.4620   -0.9480 c3        1 MOL      0.031186
      9 C4          2.6850   -5.5470   -0.5590 c         1 MOL      0.631402
     10 O2          3.5470   -5.2390   -1.3670 o         1 MOL     -0.524636
     11 C5          0.8360   -4.4770   -2.1190 c3        1 MOL     -0.523977
     12 C6         -0.6580   -4.2720   -2.2350 c         1 MOL      0.822959
     13 O3         -1.1370   -3.1260   -2.0160 o         1 MOL     -0.683439
     14 O4         -1.3260   -5.3060   -2.4500 o         1 MOL     -0.683439
     15 H4         -0.3800   -6.2080    0.3200 hn        1 MOL      0.213732
     16 H5          1.0120   -6.4790   -1.2580 h1        1 MOL      0.079071
     17 H6          1.2700   -4.7920   -3.0640 hc        1 MOL      0.160645
     18 H7          1.2530   -3.5010   -1.8700 hc        1 MOL      0.160645
     19 N2          3.0880   -5.9380    0.6320 n         1 MOL     -0.553808
     20 C7          4.4890   -5.7780    1.1250 c3        1 MOL      0.109652
     21 C8          5.5650   -6.4020    0.2350 c         1 MOL      0.482361
     22 O5          5.4830   -7.6550   -0.0030 o         1 MOL     -0.582510
     23 C9          4.6770   -6.2960    2.5940 c3        1 MOL      0.140760
     24 C10         3.5120   -6.1110    3.5020 c3        1 MOL      0.038797
     25 C11         5.9320   -5.7410    3.2720 c3        1 MOL     -0.216854
     26 C12         3.3360   -4.6160    3.9400 c3        1 MOL     -0.282073
     27 H8          2.2930   -6.1180    1.2220 hn        1 MOL      0.220362
     28 H9          4.6360   -4.7020    1.2180 h1        1 MOL      0.165024
     29 H10         4.7080   -7.3790    2.5150 hc        1 MOL     -0.038964
     30 H11         3.6690   -6.7630    4.3610 hc        1 MOL     -0.003909
     31 H12         2.5570   -6.3760    3.0590 hc        1 MOL     -0.003909
     32 H13         5.7640   -4.6660    3.2390 hc        1 MOL      0.047884
     33 H14         6.0430   -6.0460    4.3100 hc        1 MOL      0.047884
     34 H15         6.8190   -5.9540    2.6810 hc        1 MOL      0.047884
     35 H16         4.1280   -4.2690    4.5950 hc        1 MOL      0.078038
     36 H17         3.3580   -4.0020    3.0370 hc        1 MOL      0.078038
     37 H18         2.3770   -4.5450    4.4720 hc        1 MOL      0.078038
     38 N3          6.6000   -5.7040   -0.3640 n         1 MOL     -0.410330
     39 C13         6.9080   -4.2660   -0.4130 c3        1 MOL      0.209162
     40 C14         7.0620   -3.6430   -1.8320 c         1 MOL      0.456397
     41 O6          7.3010   -4.3940   -2.8070 o         1 MOL     -0.586676
     42 C15         8.1890   -4.0000    0.4350 c3        1 MOL     -0.311165
     43 C16         8.3470   -2.6040    1.0640 c         1 MOL      0.712307
     44 O7          9.3900   -2.4410    1.7300 o         1 MOL     -0.705111
     45 O8          7.5410   -1.7070    0.7690 o         1 MOL     -0.705111
     46 H19         7.2710   -6.3050   -0.8070 hn        1 MOL      0.270588
     47 H20         6.0690   -3.7120    0.0180 h1        1 MOL     -0.078049
     48 H21         9.0590   -4.1650   -0.1980 hc        1 MOL      0.063199
     49 H22         8.2500   -4.7220    1.2400 hc        1 MOL      0.063199
     50 N4          7.0370   -2.3270   -1.8840 n         1 MOL     -0.175637
     51 C17         6.9520   -1.4250   -3.0820 c3        1 MOL     -0.209360
     52 C18         7.3770    0.0320   -2.8560 c         1 MOL      0.483217
     53 O9          8.5430    0.2890   -2.5900 o         1 MOL     -0.513867
     54 H23         7.0040   -1.8570   -0.9860 hn        1 MOL      0.215471
     55 H24         5.9540   -1.5580   -3.5120 h1        1 MOL      0.095406
     56 H25         7.7080   -1.8270   -3.7550 h1        1 MOL      0.095406
     57 N5          6.4390    0.9080   -3.0860 n         1 MOL     -0.287468
     58 C19         6.6480    2.3350   -3.1200 c3        1 MOL     -0.013896
     59 C20         7.0680    2.9420   -1.7630 c         1 MOL      0.322443
     60 O10         7.8580    3.9080   -1.6910 o         1 MOL     -0.513763
     61 C21         5.3170    2.9560   -3.5760 c3        1 MOL     -0.235744
     62 C22         4.1220    2.5020   -2.7950 c         1 MOL      0.653552
     63 O11         3.7920    3.2330   -1.8320 o         1 MOL     -0.668824
     64 O12         3.6490    1.3030   -2.9450 o         1 MOL     -0.668824
     65 H26         5.5330    0.4800   -3.2070 hn        1 MOL      0.214182
     66 H27         7.4040    2.6800   -3.8120 h1        1 MOL      0.101968
     67 H28         5.2340    2.7250   -4.6370 hc        1 MOL      0.054681
     68 H29         5.3870    4.0230   -3.3860 hc        1 MOL      0.054681
     69 N6          6.6660    2.3490   -0.6260 n         1 MOL     -0.014875
     70 C23         6.8650    2.8540    0.7160 c3        1 MOL     -0.478345
     71 C24         6.1580    4.1810    1.0490 c         1 MOL      0.528868
     72 O13         6.6720    4.9810    1.8860 o         1 MOL     -0.573383
     73 H30         5.9790    1.6090   -0.6010 hn        1 MOL      0.256938
     74 H31         7.9410    2.9200    0.8820 h1        1 MOL      0.185344
     75 H32         6.4190    2.1930    1.4660 h1        1 MOL      0.185344
     76 N7          5.1150    4.6190    0.2710 n         1 MOL     -0.016588
     77 C25         4.1400    5.7610    0.4610 c3        1 MOL      0.150060
     78 C26         3.3500    5.7070    1.7640 c         1 MOL      0.417758
     79 O14         3.0430    6.6880    2.3820 o         1 MOL     -0.485246
     80 C27         4.8310    7.1100    0.1070 c3        1 MOL     -0.088263
     81 C28         5.5990    7.0760   -1.1380 c3        1 MOL     -0.028246
     82 C29         5.9120    8.5080   -1.7040 c         1 MOL      0.565582
     83 N8          6.9920    8.6560   -2.3160 n         1 MOL     -0.696210
     84 O15         5.0890    9.4400   -1.6450 o         1 MOL     -0.586422
     85 H33         4.8270    3.8980   -0.3780 hn        1 MOL      0.040148
     86 H34         3.4790    5.4560   -0.3410 h1        1 MOL      0.045058
     87 H35         5.5450    7.2430    0.9180 hc        1 MOL      0.022649
     88 H36         4.0370    7.8590    0.0880 hc        1 MOL      0.022649
     89 H37         4.9760    6.6010   -1.8850 hc        1 MOL      0.027955
     90 H38         6.4790    6.4490   -0.9780 hc        1 MOL      0.027955
     91 H39         7.6360    7.8940   -2.3950 hn        1 MOL      0.335335
     92 H40         7.1750    9.6080   -2.5980 hn        1 MOL      0.335335
     93 N9          2.9390    4.4570    2.2060 n         1 MOL     -0.387602
     94 C30         2.2240    4.1660    3.4090 c3        1 MOL     -0.044909
     95 C31         1.2130    3.0940    3.3350 c         1 MOL      0.450845
     96 O16         0.5600    2.8070    4.3940 o         1 MOL     -0.555386
     97 C32         3.1030    3.8500    4.5800 c3        1 MOL      0.264152
     98 C33         3.9140    2.5900    4.3370 c3        1 MOL     -0.234079
     99 C34         4.1350    4.9600    4.8110 c3        1 MOL     -0.234079
    100 H41         3.1370    3.6630    1.6170 hn        1 MOL      0.238318
    101 H42         1.7370    5.0950    3.7190 h1        1 MOL      0.105124
    102 H43         2.4800    3.8640    5.4720 hc        1 MOL     -0.019609
    103 H44         4.4210    2.6230    3.3610 hc        1 MOL      0.045595
    104 H45         4.6340    2.3610    5.1160 hc        1 MOL      0.045595
    105 H46         3.2010    1.7710    4.2570 hc        1 MOL      0.045595
    106 H47         4.9670    4.9590    4.1060 hc        1 MOL      0.045595
    107 H48         3.6690    5.9490    4.7950 hc        1 MOL      0.045595
    108 H49         4.4780    4.8340    5.8330 hc        1 MOL      0.045595
    109 N10         0.8780    2.5350    2.1440 n         1 MOL     -0.365225
    110 C35        -0.0210    1.4410    1.8310 c3        1 MOL      0.230269
    111 C36        -0.8660    1.7450    0.5860 c         1 MOL      0.448065
    112 O17        -0.2990    2.2290   -0.3570 o         1 MOL     -0.454096
    113 C37         0.7510    0.1040    1.5900 c3        1 MOL     -0.011067
    114 C38        -0.1750   -0.8740    0.9130 c         1 MOL      0.396464
    115 N11         0.2640   -1.3240   -0.2350 n         1 MOL     -0.638898
    116 O18        -1.2240   -1.2350    1.3300 o         1 MOL     -0.497514
    117 H50         1.3560    2.8650    1.3130 hn        1 MOL      0.209636
    118 H51        -0.7380    1.1810    2.6150 h1        1 MOL     -0.004037
    119 H52         1.0660   -0.2910    2.5560 hc        1 MOL      0.037130
    120 H53         1.6650    0.3200    1.0320 hc        1 MOL      0.037130
    121 H54         1.1510   -1.0990   -0.6520 hn        1 MOL      0.360215
    122 H55        -0.2400   -2.0730   -0.6970 hn        1 MOL      0.360215
    123 N12        -2.1790    1.4420    0.7020 n         1 MOL     -0.532609
    124 C39        -3.1360    1.7690   -0.3940 c3        1 MOL     -0.054985
    125 C40        -4.6170    1.8110    0.1160 c         1 MOL      0.792336
    126 O19        -5.0640    1.0420    0.9230 o         1 MOL     -0.648815
    127 C41        -2.9390    0.7300   -1.4920 c3        1 MOL     -0.074086
    128 C42        -4.0380    0.7130   -2.4640 ca        1 MOL     -0.081522
    129 C43        -4.0890    1.7190   -3.4500 ca        1 MOL     -0.055254
    130 C44        -5.0720   -0.2500   -2.3510 ca        1 MOL     -0.055254
    131 C45        -5.2190    1.7870   -4.3120 ca        1 MOL     -0.340605
    132 C46        -6.1370   -0.2130   -3.2050 ca        1 MOL     -0.340605
    133 C47        -6.2390    0.8150   -4.1740 ca        1 MOL      0.380338
    134 O20        -7.2810    0.8510   -5.0210 oh        1 MOL     -0.555515
    135 H56        -2.5540    1.0560    1.5530 hn        1 MOL      0.333561
    136 H57        -2.8420    2.7040   -0.8680 h1        1 MOL      0.117928
    137 H58        -2.8070   -0.2020   -0.9420 hc        1 MOL      0.071281
    138 H59        -2.0210    1.0130   -2.0020 hc        1 MOL      0.071281
    139 H60        -3.3550    2.5160   -3.4780 ha        1 MOL      0.108275
    140 H61        -4.8470   -1.0200   -1.6230 ha        1 MOL      0.108275
    141 H62        -5.3600    2.5850   -5.0180 ha        1 MOL      0.166018
    142 H63        -6.8780   -1.0030   -3.1970 ha        1 MOL      0.166018
    143 H64        -7.1640    1.4490   -5.7600 ho        1 MOL      0.396503
    144 N13        -5.2880    2.8880   -0.3510 n         1 MOL     -0.706651
    145 C48        -6.6700    3.1460    0.0260 c3        1 MOL      0.085379
    146 C49        -7.6170    2.7490   -1.1930 c         1 MOL      0.675525
    147 O21        -7.6220    3.4460   -2.1780 o         1 MOL     -0.576640
    148 C50        -6.9700    4.5730    0.4580 c3        1 MOL      0.129684
    149 C51        -8.3700    4.7790    0.9140 c3        1 MOL     -0.259569
    150 C52        -8.6160    6.2000    1.1750 c         1 MOL      0.704032
    151 O22        -8.9190    6.8990    0.1720 o         1 MOL     -0.714638
    152 O23        -8.5660    6.6700    2.3650 o         1 MOL     -0.714638
    153 H65        -4.9650    3.4950   -1.0860 hn        1 MOL      0.330991
    154 H66        -6.8900    2.5080    0.8820 h1        1 MOL      0.066743
    155 H67        -6.8150    5.2190   -0.4000 hc        1 MOL     -0.004285
    156 H68        -6.2780    4.9550    1.2050 hc        1 MOL     -0.004285
    157 H69        -8.5200    4.3250    1.8900 hc        1 MOL      0.056354
    158 H70        -9.0600    4.4760    0.1290 hc        1 MOL      0.056354
    159 N14        -8.4440    1.7140   -1.2000 n         1 MOL     -0.677101
    160 C53        -8.2980    0.4770   -0.4100 c3        1 MOL      0.177496
    161 C54        -8.6470    0.7070    1.1050 c         1 MOL      0.266596
    162 O24        -9.6260    1.3420    1.4740 o         1 MOL     -0.538796
    163 C55        -9.3290   -0.6140   -0.9440 c3        1 MOL      0.048223
    164 C56        -9.3050   -1.9940   -0.3270 c3        1 MOL     -0.198687
    165 C57        -7.8360   -2.4990   -0.1870 c         1 MOL      0.346093
    166 O25        -6.9490   -1.8600    0.3620 o         1 MOL     -0.622125
    167 O26        -7.4500   -3.5870   -0.6830 o         1 MOL     -0.622125
    168 H71        -8.8980    1.7150   -2.1050 hn        1 MOL      0.314816
    169 H72        -7.2560    0.1730   -0.5420 h1        1 MOL      0.361560
    170 H73        -8.9360   -0.7110   -1.9570 hc        1 MOL      0.009268
    171 H74       -10.3370   -0.2030   -1.0010 hc        1 MOL      0.009268
    172 H75        -9.8920   -2.6810   -0.9360 hc        1 MOL      0.065743
    173 H76        -9.7290   -1.9670    0.6690 hc        1 MOL      0.065743
    174 N15        -7.9600    0.0990    2.0590 n         1 MOL     -0.066434
    175 C58        -7.9250    0.2710    3.5230 c3        1 MOL     -0.325690
    176 H77        -8.5140   -0.5160    3.9950 h1        1 MOL      0.110241
    177 H78        -6.8940    0.2120    3.8710 h1        1 MOL      0.110241
    178 H79        -8.3420    1.2430    3.7850 h1        1 MOL      0.110241
    179 H80        -7.3390   -0.6060    1.6850 hn        1 MOL      0.233992
    180 Ca1        -5.1840   -3.8950    0.3940 Ca        1 MOL      1.782087
    181 O27        -2.8730   -2.6920   -0.1520 oh        1 MOL     -0.835405
    182 H81        -2.4300   -2.1900    0.5290 ho        1 MOL      0.393902
    183 H82        -2.2860   -2.6430   -0.9050 ho        1 MOL      0.393902
    184 O28        -4.5260   -1.7720    2.0230 oh        1 MOL     -0.835405
    185 H83        -3.9690   -1.6410    2.7930 ho        1 MOL      0.393902
    186 H84        -4.5750   -0.9030    1.6200 ho        1 MOL      0.393902
    187 O29        -3.4410   -5.7950   -0.9670 oh        1 MOL     -0.835405
    188 H85        -2.7540   -5.4570   -1.5380 ho        1 MOL      0.393902
    189 H86        -3.2670   -6.7380   -0.9150 ho        1 MOL      0.393902
    190 O30        -6.6270   -4.0380    2.6040 oh        1 MOL     -0.835405
    191 H87        -6.4340   -4.7960    3.1570 ho        1 MOL      0.393902
    192 H88        -7.5750   -3.9250    2.6600 ho        1 MOL      0.393902
    193 O31        -6.4040   -6.3140    0.0320 oh        1 MOL     -0.835405
    194 H89        -6.6050   -6.9350    0.7350 ho        1 MOL      0.393902
    195 H90        -6.7620   -6.7170   -0.7580 ho        1 MOL      0.393902
    196 O32        -5.0180   -3.7410   -2.1230 oh        1 MOL     -0.835405
    197 H91        -4.2090   -3.3750   -2.4990 ho        1 MOL      0.393902
    198 H92        -5.5980   -3.8470   -2.8760 ho        1 MOL      0.393902
@<TRIPOS>BOND
     1    1    2 1   
     2    1    4 1   
     3    1    5 1   
     4    1    6 1   
     5    2    3 2   
     6    2    7 1   
     7    7    8 1   
     8    7   15 1   
     9    8    9 1   
    10    8   11 1   
    11    8   16 1   
    12    9   10 2   
    13    9   19 1   
    14   11   12 1   
    15   11   17 1   
    16   11   18 1   
    17   12   13 1   
    18   12   14 1   
    19   19   20 1   
    20   19   27 1   
    21   20   21 1   
    22   20   23 1   
    23   20   28 1   
    24   21   22 2   
    25   21   38 1   
    26   23   24 1   
    27   23   25 1   
    28   23   29 1   
    29   24   26 1   
    30   24   30 1   
    31   24   31 1   
    32   25   32 1   
    33   25   33 1   
    34   25   34 1   
    35   26   35 1   
    36   26   36 1   
    37   26   37 1   
    38   38   39 1   
    39   38   46 1   
    40   39   40 1   
    41   39   42 1   
    42   39   47 1   
    43   40   41 2   
    44   40   50 1   
    45   42   43 1   
    46   42   48 1   
    47   42   49 1   
    48   43   44 1   
    49   43   45 1   
    50   50   51 1   
    51   50   54 1   
    52   51   52 1   
    53   51   55 1   
    54   51   56 1   
    55   52   53 2   
    56   52   57 1   
    57   57   58 1   
    58   57   65 1   
    59   58   59 1   
    60   58   61 1   
    61   58   66 1   
    62   59   60 2   
    63   59   69 1   
    64   61   62 1   
    65   61   67 1   
    66   61   68 1   
    67   62   63 1   
    68   62   64 1   
    69   69   70 1   
    70   69   73 1   
    71   70   71 1   
    72   70   74 1   
    73   70   75 1   
    74   71   72 2   
    75   71   76 1   
    76   76   77 1   
    77   76   85 1   
    78   77   78 1   
    79   77   80 1   
    80   77   86 1   
    81   78   79 2   
    82   78   93 1   
    83   80   81 1   
    84   80   87 1   
    85   80   88 1   
    86   81   82 1   
    87   81   89 1   
    88   81   90 1   
    89   82   83 1   
    90   82   84 2   
    91   83   91 1   
    92   83   92 1   
    93   93   94 1   
    94   93  100 1   
    95   94   95 1   
    96   94   97 1   
    97   94  101 1   
    98   95   96 2   
    99   95  109 1   
   100   97   98 1   
   101   97   99 1   
   102   97  102 1   
   103   98  103 1   
   104   98  104 1   
   105   98  105 1   
   106   99  106 1   
   107   99  107 1   
   108   99  108 1   
   109  109  110 1   
   110  109  117 1   
   111  110  111 1   
   112  110  113 1   
   113  110  118 1   
   114  111  112 2   
   115  111  123 1   
   116  113  114 1   
   117  113  119 1   
   118  113  120 1   
   119  114  115 1   
   120  114  116 2   
   121  115  121 1   
   122  115  122 1   
   123  123  124 1   
   124  123  135 1   
   125  124  125 1   
   126  124  127 1   
   127  124  136 1   
   128  125  126 2   
   129  125  144 1   
   130  127  128 1   
   131  127  137 1   
   132  127  138 1   
   133  128  129 ar  
   134  128  130 ar  
   135  129  131 ar  
   136  129  139 1   
   137  130  132 ar  
   138  130  140 1   
   139  131  133 ar  
   140  131  141 1   
   141  132  133 ar  
   142  132  142 1   
   143  133  134 1   
   144  134  143 1   
   145  144  145 1   
   146  144  153 1   
   147  145  146 1   
   148  145  148 1   
   149  145  154 1   
   150  146  147 2   
   151  146  159 1   
   152  148  149 1   
   153  148  155 1   
   154  148  156 1   
   155  149  150 1   
   156  149  157 1   
   157  149  158 1   
   158  150  151 1   
   159  150  152 1   
   160  159  160 1   
   161  159  168 1   
   162  160  161 1   
   163  160  163 1   
   164  160  169 1   
   165  161  162 2   
   166  161  174 1   
   167  163  164 1   
   168  163  170 1   
   169  163  171 1   
   170  164  165 1   
   171  164  172 1   
   172  164  173 1   
   173  165  166 1   
   174  165  167 1   
   175  174  175 1   
   176  174  179 1   
   177  175  176 1   
   178  175  177 1   
   179  175  178 1   
   180  181  182 1   
   181  181  183 1   
   182  184  185 1   
   183  184  186 1   
   184  187  188 1   
   185  187  189 1   
   186  190  191 1   
   187  190  192 1   
   188  193  194 1   
   189  193  195 1   
   190  196  197 1   
   191  196  198 1   
@<TRIPOS>SUBSTRUCTURE
     1 MOL         1 TEMP              0 ****  ****    0 ROOT
