@<TRIPOS>MOLECULE
MOL
  192   187     1     0     0
SMALL
resp


@<TRIPOS>ATOM
      1 C1         -6.3720   -2.6990    4.8690 c3        1 MOL     -0.178181
      2 C2         -5.6940   -2.1020    3.6160 c         1 MOL      0.764913
      3 O1         -5.3520   -2.8920    2.7370 o         1 MOL     -0.609365
      4 H1         -6.3520   -1.9660    5.6750 hc        1 MOL      0.042469
      5 H2         -7.4050   -2.9560    4.6370 hc        1 MOL      0.042469
      6 H3         -5.8360   -3.5950    5.1800 hc        1 MOL      0.042469
      7 N1         -5.5290   -0.8050    3.4640 n         1 MOL     -0.639418
      8 C3         -5.2360   -0.1060    2.1940 c3        1 MOL      0.591171
      9 C4         -3.7690   -0.2200    1.8050 c         1 MOL     -0.070582
     10 O2         -3.3720    0.4290    0.8290 o         1 MOL     -0.165000
     11 C5         -5.7200    1.3800    2.2400 c3        1 MOL     -0.131441
     12 C6         -7.2520    1.6300    2.4820 c         1 MOL      0.609153
     13 O3         -7.7600    2.5250    1.7570 o         1 MOL     -0.659657
     14 O4         -7.8240    1.0470    3.4410 o         1 MOL     -0.659657
     15 H4         -5.8750   -0.2140    4.2040 hn        1 MOL      0.282984
     16 H5         -5.7760   -0.5650    1.3630 h1        1 MOL     -0.024708
     17 H6         -5.4440    1.8830    1.3090 hc        1 MOL     -0.037556
     18 H7         -5.1400    1.9340    2.9760 hc        1 MOL     -0.037556
     19 N2         -2.8800   -0.8150    2.6460 n         1 MOL     -0.281367
     20 C7         -1.4010   -0.7370    2.4500 c3        1 MOL      0.107829
     21 C8         -0.7000   -2.0360    2.1200 c         1 MOL      0.389460
     22 O5         -1.0380   -3.0400    2.7060 o         1 MOL     -0.483508
     23 C9         -0.8250   -0.1970    3.7530 c3        1 MOL     -0.246401
     24 C10        -1.3490    1.1800    4.0300 c3        1 MOL      0.001941
     25 C11        -0.6570    1.7570    5.3060 c3        1 MOL     -0.030077
     26 C12        -1.1740    3.1330    5.7330 c3        1 MOL      0.062454
     27 N3         -1.0510    4.1510    4.6260 n4        1 MOL     -0.278529
     28 H8         -3.2280   -1.2060    3.5080 hn        1 MOL      0.249658
     29 H9         -1.1880   -0.0100    1.6630 h1        1 MOL      0.077784
     30 H10         0.2680   -0.1620    3.7750 hc        1 MOL      0.113379
     31 H11        -1.1500   -0.8910    4.5250 hc        1 MOL      0.113379
     32 H12        -2.4420    1.1510    4.0450 hc        1 MOL      0.037544
     33 H13        -1.0250    1.8050    3.2000 hc        1 MOL      0.037544
     34 H14         0.4260    1.7460    5.2310 hc        1 MOL      0.049176
     35 H15        -0.8970    1.0430    6.0990 hc        1 MOL      0.049176
     36 H16        -0.7200    3.6100    6.6000 hx        1 MOL      0.055917
     37 H17        -2.2410    3.0730    5.9490 hx        1 MOL      0.055917
     38 H18        -1.4470    5.0420    4.8920 hn        1 MOL      0.298831
     39 H19        -0.0790    4.2680    4.3670 hn        1 MOL      0.298831
     40 H20        -1.5350    3.9500    3.7750 hn        1 MOL      0.298831
     41 N4          0.3110   -2.1740    1.2420 n         1 MOL     -0.126205
     42 C13         0.9810   -1.1960    0.4520 c3        1 MOL     -0.339161
     43 C14         1.6180   -0.0230    1.2820 c         1 MOL      0.414150
     44 O6          1.0860    1.0290    1.2690 o         1 MOL     -0.498018
     45 C15         0.2360   -0.7970   -0.8650 c3        1 MOL     -0.958473
     46 C16         0.0170   -1.8980   -1.8850 c         1 MOL      0.764383
     47 O7          0.5540   -3.0010   -1.6710 o         1 MOL     -0.678979
     48 O8         -0.7390   -1.6350   -2.8720 o         1 MOL     -0.678979
     49 H21         0.6520   -3.1140    1.1010 hn        1 MOL      0.181473
     50 H22         1.8750   -1.6340    0.0090 h1        1 MOL      0.121112
     51 H23         0.7530    0.0390   -1.3320 hc        1 MOL      0.362267
     52 H24        -0.7600   -0.4500   -0.5830 hc        1 MOL      0.362267
     53 N5          2.6120   -0.3060    2.1440 n         1 MOL     -0.340163
     54 C17         3.5360   -1.4440    2.0600 c3        1 MOL      0.015959
     55 C18         4.7740   -1.3470    3.0170 c         1 MOL      0.535847
     56 O9          4.7090   -0.6080    3.9790 o         1 MOL     -0.536588
     57 H25         2.8530    0.5170    2.6810 hn        1 MOL      0.286692
     58 H26         3.9150   -1.4910    1.0410 h1        1 MOL      0.077533
     59 H27         3.0210   -2.4010    2.1730 h1        1 MOL      0.077533
     60 N6          5.8250   -2.2010    2.9620 n         1 MOL     -0.421385
     61 C19         6.0400   -3.2770    1.9460 c3        1 MOL     -0.011763
     62 C20         6.7030   -2.7520    0.6870 c         1 MOL      0.376838
     63 O10         7.3840   -1.7440    0.7560 o         1 MOL     -0.417974
     64 C21         6.9760   -4.4300    2.4480 c3        1 MOL     -0.179548
     65 C22         6.4060   -5.1540    3.7060 c         1 MOL      0.686911
     66 O11         6.2920   -4.5470    4.8100 o         1 MOL     -0.666178
     67 O12         6.2170   -6.3960    3.6080 o         1 MOL     -0.666178
     68 H28         6.5790   -2.0590    3.6160 hn        1 MOL      0.326612
     69 H29         5.0320   -3.6590    1.7480 h1        1 MOL      0.019270
     70 H30         7.9320   -3.9770    2.7200 hc        1 MOL      0.056017
     71 H31         7.0900   -5.1700    1.6670 hc        1 MOL      0.056017
     72 N7          6.4310   -3.3320   -0.5300 n         1 MOL     -0.252959
     73 C23         6.8570   -2.8110   -1.8260 c3        1 MOL     -0.025872
     74 C24         6.6680   -1.3650   -1.9650 c         1 MOL      0.465086
     75 O13         7.5780   -0.5710   -2.2430 o         1 MOL     -0.506533
     76 H32         5.8720   -4.1690   -0.4810 hn        1 MOL      0.212153
     77 H33         6.1340   -3.3360   -2.4440 h1        1 MOL      0.046191
     78 H34         7.8440   -3.1780   -2.1020 h1        1 MOL      0.046191
     79 N8          5.4320   -0.8460   -1.7130 n         1 MOL     -0.285727
     80 C25         4.9760    0.4860   -1.9270 c3        1 MOL     -0.203403
     81 C26         5.3740    1.3850   -0.7630 c         1 MOL      0.773825
     82 O14         5.2560    0.9210    0.3360 o         1 MOL     -0.500078
     83 C27         3.4840    0.4580   -2.1910 c3        1 MOL      0.434115
     84 C28         3.0270   -0.3860   -3.3890 c3        1 MOL     -0.436379
     85 O15         3.1680    1.7820   -2.5920 oh        1 MOL     -0.557522
     86 H35         4.7070   -1.5240   -1.5350 hn        1 MOL      0.149386
     87 H36         5.3350    0.9300   -2.8630 h1        1 MOL      0.112108
     88 H37         2.8720    0.2800   -1.3080 h1        1 MOL      0.096283
     89 H38         2.2770    1.8810   -2.2390 ho        1 MOL      0.286126
     90 H39         2.5990   -1.3190   -3.0260 hc        1 MOL      0.128592
     91 H40         2.1770    0.0790   -3.8920 hc        1 MOL      0.128592
     92 H41         3.8090   -0.6440   -4.0970 hc        1 MOL      0.128592
     93 N9          5.4820    2.7660   -1.0690 n         1 MOL     -0.631373
     94 C29         5.4420    3.7520   -0.0320 c3        1 MOL     -0.014524
     95 C30         4.0850    4.5820   -0.0280 c         1 MOL      0.345564
     96 O16         3.9610    5.5850    0.6710 o         1 MOL     -0.544723
     97 C31         6.6360    4.7110    0.0490 c3        1 MOL      0.235956
     98 C32         6.9430    5.3910   -1.3270 c3        1 MOL      0.211824
     99 C33         7.9830    3.9840    0.3460 c3        1 MOL     -0.365076
    100 C34         7.8210    6.6590   -1.3210 c3        1 MOL     -0.414192
    101 H42         5.7200    3.1210   -1.9910 hn        1 MOL      0.300771
    102 H43         5.3500    3.2020    0.9100 h1        1 MOL      0.097704
    103 H44         6.3960    5.4620    0.7990 hc        1 MOL     -0.015521
    104 H45         5.9920    5.6200   -1.7990 hc        1 MOL     -0.032166
    105 H46         7.4140    4.6870   -2.0130 hc        1 MOL     -0.032166
    106 H47         8.1260    3.1460   -0.3360 hc        1 MOL      0.088269
    107 H48         8.7760    4.7230    0.3450 hc        1 MOL      0.088269
    108 H49         7.8530    3.5640    1.3370 hc        1 MOL      0.088269
    109 H50         7.7790    7.1200   -2.3110 hc        1 MOL      0.098683
    110 H51         7.5440    7.2650   -0.4520 hc        1 MOL      0.098683
    111 H52         8.8530    6.3170   -1.2270 hc        1 MOL      0.098683
    112 N10         3.0540    4.2280   -0.7880 n         1 MOL     -0.022074
    113 C35         1.6900    4.8250   -0.8530 c3        1 MOL      0.009995
    114 C36         0.5560    3.8290   -0.7740 c         1 MOL      0.296259
    115 O17         0.8060    2.7300   -1.1290 o         1 MOL     -0.330917
    116 C37         1.5350    5.6530   -2.1790 c3        1 MOL      0.360439
    117 C38         1.7830    4.9160   -3.5260 c3        1 MOL     -0.314787
    118 O18         2.3380    6.8580   -2.2190 oh        1 MOL     -0.660053
    119 H53         3.2100    3.3750   -1.3150 hn        1 MOL      0.058374
    120 H54         1.5370    5.5120   -0.0220 h1        1 MOL      0.056551
    121 H55         0.4790    5.9410   -2.2040 h1        1 MOL     -0.039058
    122 H56         2.1840    7.3750   -3.0060 ho        1 MOL      0.410594
    123 H57         1.1150    4.0730   -3.7140 hc        1 MOL      0.085499
    124 H58         1.5800    5.6340   -4.3250 hc        1 MOL      0.085499
    125 H59         2.7950    4.5030   -3.5740 hc        1 MOL      0.085499
    126 N11        -0.5920    4.2180   -0.2270 n         1 MOL     -0.398172
    127 C39        -1.7710    3.3050   -0.0740 c3        1 MOL      0.019274
    128 C40        -2.2770    2.8290   -1.4660 c         1 MOL      0.433477
    129 O19        -1.9280    3.4310   -2.4470 o         1 MOL     -0.527578
    130 C41        -2.9090    3.9700    0.7850 c3        1 MOL      0.320465
    131 C42        -3.4460    5.2810    0.1780 c3        1 MOL     -0.178551
    132 O20        -2.5700    4.1190    2.1630 oh        1 MOL     -0.741921
    133 H60        -0.7130    5.1750    0.0480 hn        1 MOL      0.294951
    134 H61        -1.4360    2.4410    0.5080 h1        1 MOL      0.189767
    135 H62        -3.7710    3.3010    0.7180 h1        1 MOL      0.087581
    136 H63        -3.3820    4.4880    2.5140 ho        1 MOL      0.426352
    137 H64        -2.6950    5.9930   -0.1800 hc        1 MOL      0.043755
    138 H65        -4.1650    4.9820   -0.5860 hc        1 MOL      0.043755
    139 H66        -4.0070    5.8220    0.9300 hc        1 MOL      0.043755
    140 N12        -3.1070    1.8080   -1.5080 n         1 MOL      0.081264
    141 C43        -3.8680    1.3110   -2.7060 c3        1 MOL     -0.333814
    142 C44        -4.0690   -0.1640   -2.7870 c         1 MOL      0.677058
    143 O21        -4.6120   -0.6550   -3.7720 o         1 MOL     -0.589668
    144 C45        -5.2210    2.1150   -2.8930 c3        1 MOL     -0.034986
    145 C46        -6.2620    1.6430   -1.8800 c3        1 MOL     -0.046798
    146 C47        -7.5730    2.3940   -2.0650 c3        1 MOL     -0.177142
    147 C48        -7.5660    3.8310   -1.5640 c3        1 MOL      0.287458
    148 N13        -8.7290    4.5880   -1.9790 n4        1 MOL     -0.547162
    149 H67        -3.1920    1.3220   -0.6320 hn        1 MOL     -0.380283
    150 H68        -3.1950    1.4160   -3.5560 h1        1 MOL      0.158351
    151 H69        -5.6450    2.0010   -3.8870 hc        1 MOL      0.046568
    152 H70        -5.0100    3.1740   -2.8490 hc        1 MOL      0.046568
    153 H71        -5.8980    1.8110   -0.8640 hc        1 MOL      0.084238
    154 H72        -6.4410    0.5750   -1.9080 hc        1 MOL      0.084238
    155 H73        -8.3010    1.8200   -1.4920 hc        1 MOL      0.062249
    156 H74        -7.8310    2.4280   -3.1160 hc        1 MOL      0.062249
    157 H75        -6.5780    4.2270   -1.8220 hx        1 MOL      0.005067
    158 H76        -7.5310    3.9020   -0.4740 hx        1 MOL      0.005067
    159 H77        -8.7270    5.5070   -1.5680 hn        1 MOL      0.364552
    160 H78        -8.8110    4.6810   -2.9850 hn        1 MOL      0.364552
    161 H79        -9.6040    4.2340   -1.6100 hn        1 MOL      0.364552
    162 N14        -3.7350   -0.9290   -1.7390 n         1 MOL      0.056219
    163 C49        -4.0170   -2.3890   -1.5900 c3        1 MOL     -0.956338
    164 C50        -5.5220   -2.6910   -1.4170 c         1 MOL      0.605521
    165 O22        -6.2330   -2.0650   -0.6550 o         1 MOL     -0.484740
    166 C51        -3.1880   -2.8850   -0.4550 c3        1 MOL      0.987501
    167 C52        -3.1420   -4.4080   -0.1600 c3        1 MOL     -0.658468
    168 C53        -3.0730   -5.3390   -1.3530 c         1 MOL      0.844308
    169 O23        -4.0540   -5.6500   -2.0360 o         1 MOL     -0.775846
    170 O24        -1.9100   -5.7040   -1.7200 o         1 MOL     -0.775846
    171 H80        -3.6100   -0.4580   -0.8530 hn        1 MOL      0.176878
    172 H81        -3.6160   -2.9070   -2.4590 h1        1 MOL      0.226901
    173 H82        -3.5540   -2.4840    0.4820 hc        1 MOL     -0.147099
    174 H83        -2.1800   -2.5400   -0.7140 hc        1 MOL     -0.147099
    175 H84        -4.0210   -4.6750    0.4210 hc        1 MOL      0.134895
    176 H85        -2.2430   -4.6230    0.4160 hc        1 MOL      0.134895
    177 N15        -6.0920   -3.7360   -2.1190 n         1 MOL     -0.254615
    178 C54        -7.4910   -4.0550   -2.2730 c3        1 MOL     -0.204063
    179 H86        -7.5910   -5.0630   -2.6760 h1        1 MOL      0.086790
    180 H87        -7.9860   -4.0000   -1.3040 h1        1 MOL      0.086790
    181 H88        -7.9530   -3.3430   -2.9570 h1        1 MOL      0.086790
    182 H89        -5.4750   -4.3230   -2.6610 hn        1 MOL      0.371663
    183 Ca1         0.5180   -5.4390   -2.0480 Ca        1 MOL      1.638423
    184 O25         2.5130   -4.3760   -3.5710 oh        1 MOL     -0.865874
    185 H90         2.4370   -3.9120   -4.4040 ho        1 MOL      0.426332
    186 H91         3.2840   -4.9250   -3.6780 ho        1 MOL      0.426332
    187 O26        -0.7830   -4.1760   -3.9150 oh        1 MOL     -0.865874
    188 H92        -0.8360   -3.2620   -3.6470 ho        1 MOL      0.426332
    189 H93        -1.4480   -4.2680   -4.5900 ho        1 MOL      0.426332
    190 O27         0.7970   -7.3190   -3.9890 oh        1 MOL     -0.865874
    191 H94         0.1400   -8.0130   -3.8810 ho        1 MOL      0.426332
    192 H95         1.4800   -7.7090   -4.5250 ho        1 MOL      0.426332
@<TRIPOS>BOND
     1    1    2 1   
     2    1    4 1   
     3    1    5 1   
     4    1    6 1   
     5    2    3 2   
     6    2    7 1   
     7    7    8 1   
     8    7   15 1   
     9    8    9 1   
    10    8   11 1   
    11    8   16 1   
    12    9   10 2   
    13    9   19 1   
    14   11   12 1   
    15   11   17 1   
    16   11   18 1   
    17   12   13 1   
    18   12   14 1   
    19   19   20 1   
    20   19   28 1   
    21   20   21 1   
    22   20   23 1   
    23   20   29 1   
    24   21   22 2   
    25   21   41 1   
    26   23   24 1   
    27   23   30 1   
    28   23   31 1   
    29   24   25 1   
    30   24   32 1   
    31   24   33 1   
    32   25   26 1   
    33   25   34 1   
    34   25   35 1   
    35   26   27 1   
    36   26   36 1   
    37   26   37 1   
    38   27   38 1   
    39   27   39 1   
    40   27   40 1   
    41   41   42 1   
    42   41   49 1   
    43   42   43 1   
    44   42   45 1   
    45   42   50 1   
    46   43   44 2   
    47   43   53 1   
    48   45   46 1   
    49   45   51 1   
    50   45   52 1   
    51   46   47 1   
    52   46   48 1   
    53   53   54 1   
    54   53   57 1   
    55   54   55 1   
    56   54   58 1   
    57   54   59 1   
    58   55   56 2   
    59   55   60 1   
    60   60   61 1   
    61   60   68 1   
    62   61   62 1   
    63   61   64 1   
    64   61   69 1   
    65   62   63 2   
    66   62   72 1   
    67   64   65 1   
    68   64   70 1   
    69   64   71 1   
    70   65   66 1   
    71   65   67 1   
    72   72   73 1   
    73   72   76 1   
    74   73   74 1   
    75   73   77 1   
    76   73   78 1   
    77   74   75 2   
    78   74   79 1   
    79   79   80 1   
    80   79   86 1   
    81   80   81 1   
    82   80   83 1   
    83   80   87 1   
    84   81   82 2   
    85   81   93 1   
    86   83   84 1   
    87   83   85 1   
    88   83   88 1   
    89   84   90 1   
    90   84   91 1   
    91   84   92 1   
    92   85   89 1   
    93   93   94 1   
    94   93  101 1   
    95   94   95 1   
    96   94   97 1   
    97   94  102 1   
    98   95   96 2   
    99   95  112 1   
   100   97   98 1   
   101   97   99 1   
   102   97  103 1   
   103   98  100 1   
   104   98  104 1   
   105   98  105 1   
   106   99  106 1   
   107   99  107 1   
   108   99  108 1   
   109  100  109 1   
   110  100  110 1   
   111  100  111 1   
   112  112  113 1   
   113  112  119 1   
   114  113  114 1   
   115  113  116 1   
   116  113  120 1   
   117  114  115 2   
   118  114  126 1   
   119  116  117 1   
   120  116  118 1   
   121  116  121 1   
   122  117  123 1   
   123  117  124 1   
   124  117  125 1   
   125  118  122 1   
   126  126  127 1   
   127  126  133 1   
   128  127  128 1   
   129  127  130 1   
   130  127  134 1   
   131  128  129 2   
   132  128  140 1   
   133  130  131 1   
   134  130  132 1   
   135  130  135 1   
   136  131  137 1   
   137  131  138 1   
   138  131  139 1   
   139  132  136 1   
   140  140  141 1   
   141  140  149 1   
   142  141  142 1   
   143  141  144 1   
   144  141  150 1   
   145  142  143 2   
   146  142  162 1   
   147  144  145 1   
   148  144  151 1   
   149  144  152 1   
   150  145  146 1   
   151  145  153 1   
   152  145  154 1   
   153  146  147 1   
   154  146  155 1   
   155  146  156 1   
   156  147  148 1   
   157  147  157 1   
   158  147  158 1   
   159  148  159 1   
   160  148  160 1   
   161  148  161 1   
   162  162  163 1   
   163  162  171 1   
   164  163  164 1   
   165  163  166 1   
   166  163  172 1   
   167  164  165 2   
   168  164  177 1   
   169  166  167 1   
   170  166  173 1   
   171  166  174 1   
   172  167  168 1   
   173  167  175 1   
   174  167  176 1   
   175  168  169 1   
   176  168  170 1   
   177  177  178 1   
   178  177  182 1   
   179  178  179 1   
   180  178  180 1   
   181  178  181 1   
   182  184  185 1   
   183  184  186 1   
   184  187  188 1   
   185  187  189 1   
   186  190  191 1   
   187  190  192 1   
@<TRIPOS>SUBSTRUCTURE
     1 MOL         1 TEMP              0 ****  ****    0 ROOT
