@<TRIPOS>MOLECULE
MOL
  182   178     1     0     0
SMALL
resp


@<TRIPOS>ATOM
      1 C1          0.4250   -3.8990    6.3190 c3        1 MOL     -0.382811
      2 C2          0.5600   -3.8440    4.7650 c         1 MOL      0.734909
      3 O1         -0.3240   -4.2090    4.0020 o         1 MOL     -0.545316
      4 H1         -0.2210   -4.7320    6.5990 hc        1 MOL      0.105452
      5 H2          1.4090   -4.0390    6.7650 hc        1 MOL      0.105452
      6 H3         -0.0090   -2.9660    6.6810 hc        1 MOL      0.105452
      7 N1          1.7710   -3.4640    4.4010 n         1 MOL     -0.574671
      8 C3          2.1620   -3.1780    3.0280 c3        1 MOL      0.128414
      9 C4          2.2970   -4.4350    2.1470 c         1 MOL      0.587402
     10 O2          2.6800   -5.5430    2.5730 o         1 MOL     -0.548076
     11 C5          3.2850   -2.0930    2.9590 c3        1 MOL     -0.339922
     12 C6          3.4350   -1.4820    1.5660 c         1 MOL      0.626600
     13 O3          4.1550   -0.4490    1.4870 o         1 MOL     -0.676819
     14 O4          2.8380   -1.8970    0.5300 o         1 MOL     -0.676819
     15 H4          2.2650   -3.0710    5.1840 hn        1 MOL      0.322649
     16 H5          1.3100   -2.6340    2.6230 h1        1 MOL     -0.113071
     17 H6          4.1140   -2.7600    3.1750 hc        1 MOL      0.143047
     18 H7          3.1170   -1.2950    3.6730 hc        1 MOL      0.143047
     19 N2          1.8680   -4.3060    0.8780 n         1 MOL     -0.395989
     20 C7          1.9480   -5.2650   -0.2090 c3        1 MOL     -0.016260
     21 C8          3.1580   -4.9940   -1.0970 c         1 MOL      0.483713
     22 O5          3.4730   -5.8750   -1.8550 o         1 MOL     -0.557533
     23 C9          0.7420   -5.2240   -1.0330 c3        1 MOL      0.190280
     24 C10         0.2710   -6.6150   -1.5010 c3        1 MOL      0.086201
     25 C11        -1.1160   -6.4990   -2.1730 c3        1 MOL     -0.126161
     26 C12        -1.5810   -7.9280   -2.5390 c3        1 MOL      0.132018
     27 N3         -2.9180   -7.9740   -3.1020 n4        1 MOL     -0.314179
     28 H8          1.7550   -3.3500    0.5690 hn        1 MOL      0.258884
     29 H9          1.9990   -6.2890    0.1690 h1        1 MOL      0.071539
     30 H10         0.8600   -4.5910   -1.9070 hc        1 MOL     -0.048879
     31 H11        -0.1290   -4.7940   -0.5320 hc        1 MOL     -0.048879
     32 H12         0.1720   -7.2800   -0.6450 hc        1 MOL     -0.001693
     33 H13         0.9650   -7.0360   -2.2220 hc        1 MOL     -0.001693
     34 H14        -1.0060   -5.8560   -3.0510 hc        1 MOL      0.052580
     35 H15        -1.8190   -6.0530   -1.4650 hc        1 MOL      0.052580
     36 H16        -1.5490   -8.5560   -1.6460 hx        1 MOL      0.049501
     37 H17        -0.8340   -8.3570   -3.2000 hx        1 MOL      0.049501
     38 H18        -3.5010   -7.6670   -2.3430 hn        1 MOL      0.276787
     39 H19        -2.9780   -7.3070   -3.8570 hn        1 MOL      0.276787
     40 H20        -3.2840   -8.8830   -3.3490 hn        1 MOL      0.276787
     41 N4          3.9070   -3.8860   -1.0600 n         1 MOL     -0.355871
     42 C13         5.1000   -3.6770   -1.8610 c3        1 MOL      0.028710
     43 C14         6.2610   -2.9260   -1.1270 c         1 MOL      0.280987
     44 O6          7.2350   -2.5310   -1.8030 o         1 MOL     -0.464773
     45 C15         4.7450   -2.9000   -3.1310 c3        1 MOL     -0.164332
     46 C16         4.2600   -1.5310   -2.9590 c         1 MOL      0.834718
     47 O7          3.7050   -0.9460   -3.9240 o         1 MOL     -0.736473
     48 O8          4.3400   -0.8680   -1.8750 o         1 MOL     -0.736473
     49 H21         3.5840   -3.0370   -0.5990 hn        1 MOL      0.250590
     50 H22         5.4820   -4.6650   -2.1170 h1        1 MOL      0.137759
     51 H23         3.9510   -3.4850   -3.6010 hc        1 MOL      0.054563
     52 H24         5.6370   -3.0150   -3.7400 hc        1 MOL      0.054563
     53 N5          6.1090   -2.6640    0.1740 n         1 MOL     -0.056347
     54 C17         7.0590   -1.9960    0.9550 c3        1 MOL     -0.183989
     55 C18         7.4100   -0.5150    0.5230 c         1 MOL      0.523261
     56 O9          8.3100    0.1180    1.1250 o         1 MOL     -0.561602
     57 H25         5.3150   -3.0700    0.6480 hn        1 MOL      0.135005
     58 H26         8.0240   -2.4980    0.9680 h1        1 MOL      0.104093
     59 H27         6.6360   -1.9390    1.9660 h1        1 MOL      0.104093
     60 N6          6.8250    0.1080   -0.5630 n         1 MOL     -0.272227
     61 C19         7.1460    1.4150   -1.2020 c3        1 MOL      0.130749
     62 C20         6.0450    2.4640   -0.9500 c         1 MOL      0.482190
     63 O10         4.9000    2.0160   -0.8160 o         1 MOL     -0.562351
     64 C21         7.4760    1.2030   -2.7170 c3        1 MOL     -0.181106
     65 C22         8.8540    0.6240   -2.9840 c         1 MOL      0.620441
     66 N7          9.0040   -0.6280   -2.6030 n         1 MOL     -0.752886
     67 O11         9.7000    1.2970   -3.5590 o         1 MOL     -0.566402
     68 H28         6.0280   -0.4240   -0.8850 hn        1 MOL      0.209761
     69 H29         8.0120    1.8830   -0.7170 h1        1 MOL      0.042167
     70 H30         7.6320    2.2020   -3.0970 hc        1 MOL      0.044106
     71 H31         6.6740    0.7270   -3.2740 hc        1 MOL      0.044106
     72 H32         8.2060   -1.1070   -2.2010 hn        1 MOL      0.349987
     73 H33         9.8020   -1.1240   -2.9660 hn        1 MOL      0.349987
     74 N8          6.3290    3.7770   -0.9450 n         1 MOL     -0.317448
     75 C23         5.3210    4.7640   -0.8930 c3        1 MOL     -0.179291
     76 C24         4.3550    4.5940    0.2740 c         1 MOL      0.601921
     77 O12         4.7910    4.3250    1.3660 o         1 MOL     -0.495367
     78 H34         7.2930    4.0530   -0.8950 hn        1 MOL      0.301769
     79 H35         4.7250    4.9000   -1.7960 h1        1 MOL      0.097365
     80 H36         5.7550    5.7380   -0.6450 h1        1 MOL      0.097365
     81 N9          3.0470    4.7650   -0.0480 n         1 MOL     -0.559312
     82 C25         1.8260    4.6930    0.8090 c3        1 MOL      0.041504
     83 C26         1.5690    3.2920    1.4240 c         1 MOL      0.650895
     84 O13         2.3240    2.3260    1.1450 o         1 MOL     -0.536344
     85 C27         0.6080    5.3970    0.1330 c3        1 MOL     -0.181499
     86 C28         0.7720    6.8890   -0.1300 ca        1 MOL      0.061899
     87 C29         1.1960    7.7270    0.8910 ca        1 MOL     -0.140844
     88 C30         0.6770    7.4080   -1.4790 ca        1 MOL     -0.140844
     89 C31         1.3810    9.1090    0.6690 ca        1 MOL     -0.275568
     90 C32         0.8510    8.8260   -1.6870 ca        1 MOL     -0.275568
     91 C33         1.2190    9.6960   -0.6220 ca        1 MOL      0.324429
     92 O14         1.4800   11.0650   -0.8380 oh        1 MOL     -0.442724
     93 H37         2.8480    4.9400   -1.0260 hn        1 MOL      0.324217
     94 H38         2.1560    5.2850    1.6680 h1        1 MOL      0.093212
     95 H39        -0.1810    5.3100    0.8810 hc        1 MOL      0.069432
     96 H40         0.2090    4.8680   -0.7410 hc        1 MOL      0.069432
     97 H41         1.3250    7.3530    1.8950 ha        1 MOL      0.133573
     98 H42         0.3160    6.8300   -2.3140 ha        1 MOL      0.133573
     99 H43         1.7070    9.6940    1.5160 ha        1 MOL      0.171168
    100 H44         0.6650    9.2310   -2.6710 ha        1 MOL      0.171168
    101 H45         1.6510   11.3720    0.0580 ho        1 MOL      0.338296
    102 N10         0.5090    3.1250    2.2500 n         1 MOL     -0.634583
    103 C34         0.0210    1.8330    2.7750 c3        1 MOL      0.041728
    104 C35        -0.1560    0.7010    1.7890 c         1 MOL      0.376103
    105 O15         0.8110    0.2150    1.2480 o         1 MOL     -0.405870
    106 C36         0.9060    1.3640    3.9610 c3        1 MOL      0.280697
    107 C37         0.7310   -0.0460    4.5780 c3        1 MOL     -0.046162
    108 C38         0.8760    2.4050    5.0760 c3        1 MOL     -0.458762
    109 C39        -0.6080   -0.2640    5.2580 c3        1 MOL     -0.230972
    110 H46         0.0320    3.9590    2.5700 hn        1 MOL      0.354054
    111 H47        -0.9140    2.0610    3.2870 h1        1 MOL      0.063768
    112 H48         1.9080    1.2920    3.5290 hc        1 MOL      0.024685
    113 H49         1.5480   -0.1840    5.2890 hc        1 MOL      0.048665
    114 H50         0.7810   -0.7630    3.7640 hc        1 MOL      0.048665
    115 H51         1.5490    3.2200    4.8320 hc        1 MOL      0.110512
    116 H52        -0.1490    2.7780    5.1450 hc        1 MOL      0.110512
    117 H53         1.1640    1.9430    6.0280 hc        1 MOL      0.110512
    118 H54        -0.7030   -1.2850    5.6540 hc        1 MOL      0.055419
    119 H55        -0.7800    0.3890    6.1100 hc        1 MOL      0.055419
    120 H56        -1.3530   -0.0520    4.4980 hc        1 MOL      0.055419
    121 N11        -1.4030    0.2850    1.5310 n         1 MOL     -0.407134
    122 C40        -1.7330   -0.8930    0.6570 c3        1 MOL     -0.345486
    123 C41        -3.2470   -1.0010    0.2570 c         1 MOL      0.655928
    124 O16        -3.4760   -1.8660   -0.5970 o         1 MOL     -0.580956
    125 C42        -1.3100   -2.1800    1.4560 c3        1 MOL      0.147094
    126 O17        -1.6550   -2.1510    2.8020 oh        1 MOL     -0.530357
    127 H57        -2.1520    0.6460    2.1070 hn        1 MOL      0.326952
    128 H58        -1.2150   -0.6520   -0.2700 h1        1 MOL      0.245357
    129 H59        -0.2290   -2.2260    1.3670 h1        1 MOL      0.067566
    130 H60        -1.8170   -3.0690    1.0770 h1        1 MOL      0.067566
    131 H61        -1.3150   -2.9040    3.2840 ho        1 MOL      0.340938
    132 N12        -4.1220   -0.1440    0.7490 n         1 MOL     -0.375103
    133 C43        -5.5520   -0.1130    0.3760 c3        1 MOL     -0.037491
    134 C44        -5.7210    0.5210   -1.0120 c         1 MOL      0.639270
    135 O18        -4.8650    1.2840   -1.4680 o         1 MOL     -0.571423
    136 C45        -6.3570    0.6280    1.3920 c3        1 MOL     -0.120691
    137 H62        -3.8270    0.5570    1.4170 hn        1 MOL      0.246300
    138 H63        -5.9440   -1.1250    0.3140 h1        1 MOL      0.130273
    139 H64        -7.3850    0.7730    1.0400 hc        1 MOL      0.045118
    140 H65        -6.1950    0.1470    2.3540 hc        1 MOL      0.045118
    141 H66        -6.0340    1.6530    1.5650 hc        1 MOL      0.045118
    142 N13        -6.8350    0.1690   -1.7590 n         1 MOL     -0.590755
    143 C46        -7.9550   -0.7000   -1.4700 c3        1 MOL      0.319028
    144 C47        -9.1330   -0.1970   -2.2580 c         1 MOL      0.473638
    145 O19        -9.0510    0.1020   -3.4490 o         1 MOL     -0.554820
    146 C48        -7.6330   -2.1550   -1.8380 c3        1 MOL     -0.378101
    147 H67        -6.7350    0.5610   -2.6870 hn        1 MOL      0.303379
    148 H68        -8.1990   -0.5630   -0.4110 h1        1 MOL     -0.024305
    149 H69        -6.7970   -2.5480   -1.2590 hc        1 MOL      0.103937
    150 H70        -8.5630   -2.7160   -1.7030 hc        1 MOL      0.103937
    151 H71        -7.5580   -2.2000   -2.9230 hc        1 MOL      0.103937
    152 N14       -10.3620   -0.1540   -1.7580 n         1 MOL     -0.293594
    153 C49       -10.7180   -0.4160   -0.3070 c3        1 MOL     -0.335642
    154 C50       -10.2350    0.6250    0.7820 c         1 MOL      0.597277
    155 O20       -10.2040    0.3470    2.0070 o         1 MOL     -0.567722
    156 C51       -12.2020   -0.7600   -0.1900 c3        1 MOL     -0.021021
    157 C52       -13.2510    0.3300   -0.2620 c3        1 MOL     -0.060952
    158 C53       -13.2820    1.0180   -1.6510 c         1 MOL      0.687433
    159 O21       -12.4250    1.8460   -1.9850 o         1 MOL     -0.656904
    160 O22       -14.2280    0.7350   -2.4430 o         1 MOL     -0.656904
    161 H72       -11.0300    0.2600   -2.4020 hn        1 MOL      0.292683
    162 H73       -10.2390   -1.3530   -0.0170 h1        1 MOL      0.126695
    163 H74       -12.1490   -1.1100    0.8360 hc        1 MOL      0.041505
    164 H75       -12.5870   -1.6010   -0.7690 hc        1 MOL      0.041505
    165 H76       -13.0230    1.1290    0.4450 hc        1 MOL      0.001883
    166 H77       -14.2480   -0.0050   -0.0160 hc        1 MOL      0.001883
    167 N15        -9.8620    1.8060    0.3920 n         1 MOL     -0.190371
    168 C54        -9.2410    2.9060    1.2090 c3        1 MOL     -0.294537
    169 H78        -8.8960    3.7000    0.5460 h1        1 MOL      0.128446
    170 H79        -9.9810    3.3090    1.9010 h1        1 MOL      0.128446
    171 H80        -8.3960    2.5100    1.7710 h1        1 MOL      0.128446
    172 H81        -9.9620    1.9190   -0.6050 hn        1 MOL      0.202988
    173 Ca1         2.6810    0.4520   -0.6000 Ca        1 MOL      1.767993
    174 O23         1.1630   -1.1750   -2.2600 oh        1 MOL     -0.888756
    175 H82         1.6300   -1.5580   -3.0010 ho        1 MOL      0.421478
    176 H83         0.3190   -0.9030   -2.6200 ho        1 MOL      0.421478
    177 O24         0.5710    2.1590   -1.4000 oh        1 MOL     -0.888756
    178 H84        -0.3340    2.2120   -1.1010 ho        1 MOL      0.421478
    179 H85         0.6010    2.7370   -2.1720 ho        1 MOL      0.421478
    180 O25         2.8930    1.3610   -3.3670 oh        1 MOL     -0.888756
    181 H86         2.4580    1.5620   -4.1990 ho        1 MOL      0.421478
    182 H87         3.3420    0.5300   -3.5190 ho        1 MOL      0.421478
@<TRIPOS>BOND
     1    1    2 1   
     2    1    4 1   
     3    1    5 1   
     4    1    6 1   
     5    2    3 2   
     6    2    7 1   
     7    7    8 1   
     8    7   15 1   
     9    8    9 1   
    10    8   11 1   
    11    8   16 1   
    12    9   10 2   
    13    9   19 1   
    14   11   12 1   
    15   11   17 1   
    16   11   18 1   
    17   12   13 1   
    18   12   14 1   
    19   19   20 1   
    20   19   28 1   
    21   20   21 1   
    22   20   23 1   
    23   20   29 1   
    24   21   22 2   
    25   21   41 1   
    26   23   24 1   
    27   23   30 1   
    28   23   31 1   
    29   24   25 1   
    30   24   32 1   
    31   24   33 1   
    32   25   26 1   
    33   25   34 1   
    34   25   35 1   
    35   26   27 1   
    36   26   36 1   
    37   26   37 1   
    38   27   38 1   
    39   27   39 1   
    40   27   40 1   
    41   41   42 1   
    42   41   49 1   
    43   42   43 1   
    44   42   45 1   
    45   42   50 1   
    46   43   44 2   
    47   43   53 1   
    48   45   46 1   
    49   45   51 1   
    50   45   52 1   
    51   46   47 1   
    52   46   48 1   
    53   53   54 1   
    54   53   57 1   
    55   54   55 1   
    56   54   58 1   
    57   54   59 1   
    58   55   56 2   
    59   55   60 1   
    60   60   61 1   
    61   60   68 1   
    62   61   62 1   
    63   61   64 1   
    64   61   69 1   
    65   62   63 2   
    66   62   74 1   
    67   64   65 1   
    68   64   70 1   
    69   64   71 1   
    70   65   66 1   
    71   65   67 2   
    72   66   72 1   
    73   66   73 1   
    74   74   75 1   
    75   74   78 1   
    76   75   76 1   
    77   75   79 1   
    78   75   80 1   
    79   76   77 2   
    80   76   81 1   
    81   81   82 1   
    82   81   93 1   
    83   82   83 1   
    84   82   85 1   
    85   82   94 1   
    86   83   84 2   
    87   83  102 1   
    88   85   86 1   
    89   85   95 1   
    90   85   96 1   
    91   86   87 ar  
    92   86   88 ar  
    93   87   89 ar  
    94   87   97 1   
    95   88   90 ar  
    96   88   98 1   
    97   89   91 ar  
    98   89   99 1   
    99   90   91 ar  
   100   90  100 1   
   101   91   92 1   
   102   92  101 1   
   103  102  103 1   
   104  102  110 1   
   105  103  104 1   
   106  103  106 1   
   107  103  111 1   
   108  104  105 2   
   109  104  121 1   
   110  106  107 1   
   111  106  108 1   
   112  106  112 1   
   113  107  109 1   
   114  107  113 1   
   115  107  114 1   
   116  108  115 1   
   117  108  116 1   
   118  108  117 1   
   119  109  118 1   
   120  109  119 1   
   121  109  120 1   
   122  121  122 1   
   123  121  127 1   
   124  122  123 1   
   125  122  125 1   
   126  122  128 1   
   127  123  124 2   
   128  123  132 1   
   129  125  126 1   
   130  125  129 1   
   131  125  130 1   
   132  126  131 1   
   133  132  133 1   
   134  132  137 1   
   135  133  134 1   
   136  133  136 1   
   137  133  138 1   
   138  134  135 2   
   139  134  142 1   
   140  136  139 1   
   141  136  140 1   
   142  136  141 1   
   143  142  143 1   
   144  142  147 1   
   145  143  144 1   
   146  143  146 1   
   147  143  148 1   
   148  144  145 2   
   149  144  152 1   
   150  146  149 1   
   151  146  150 1   
   152  146  151 1   
   153  152  153 1   
   154  152  161 1   
   155  153  154 1   
   156  153  156 1   
   157  153  162 1   
   158  154  155 2   
   159  154  167 1   
   160  156  157 1   
   161  156  163 1   
   162  156  164 1   
   163  157  158 1   
   164  157  165 1   
   165  157  166 1   
   166  158  159 1   
   167  158  160 1   
   168  167  168 1   
   169  167  172 1   
   170  168  169 1   
   171  168  170 1   
   172  168  171 1   
   173  174  175 1   
   174  174  176 1   
   175  177  178 1   
   176  177  179 1   
   177  180  181 1   
   178  180  182 1   
@<TRIPOS>SUBSTRUCTURE
     1 MOL         1 TEMP              0 ****  ****    0 ROOT
