@<TRIPOS>MOLECULE
MOL
  189   185     1     0     0
SMALL
resp


@<TRIPOS>ATOM
      1 C1          0.7940    7.6310   -2.6180 c3        1 MOL     -0.353647
      2 C2          1.0040    6.1700   -2.0810 c         1 MOL      0.737344
      3 O1          0.8540    5.1870   -2.8030 o         1 MOL     -0.660633
      4 H1         -0.2030    7.9770   -2.3490 hc        1 MOL      0.089145
      5 H2          1.5390    8.2920   -2.1750 hc        1 MOL      0.089145
      6 H3          0.9000    7.6390   -3.7030 hc        1 MOL      0.089145
      7 N1          1.2510    6.0390   -0.7690 n         1 MOL     -0.475556
      8 C3          1.5400    4.7310   -0.1340 c3        1 MOL      0.116987
      9 C4          0.2770    4.1290    0.4950 c         1 MOL      0.584116
     10 O2          0.4430    3.5650    1.5630 o         1 MOL     -0.511095
     11 C5          2.7820    4.8550    0.7750 c3        1 MOL     -0.197002
     12 C6          2.6860    5.9080    1.8980 c         1 MOL      0.718746
     13 O3          2.8630    5.6230    3.1130 o         1 MOL     -0.726766
     14 O4          2.4640    7.0980    1.5070 o         1 MOL     -0.726766
     15 H4          1.4530    6.8640   -0.2230 hn        1 MOL      0.252901
     16 H5          1.7890    4.0540   -0.9510 h1        1 MOL      0.102821
     17 H6          3.6430    5.1740    0.1980 hc        1 MOL      0.050191
     18 H7          2.9170    3.8900    1.2710 hc        1 MOL      0.050191
     19 N2         -0.9740    4.4050   -0.0140 n         1 MOL     -0.806897
     20 C7         -2.1760    3.6530    0.3560 c3        1 MOL      0.818009
     21 C8         -2.9230    3.0560   -0.8540 c         1 MOL      0.236075
     22 O5         -3.0870    3.7280   -1.8790 o         1 MOL     -0.549794
     23 C9         -3.1510    4.5280    1.2020 c3        1 MOL     -0.521635
     24 C10        -2.5760    4.8590    2.5340 c3        1 MOL      0.287800
     25 C11        -3.3860    5.8020    3.4110 c3        1 MOL     -0.166857
     26 C12        -3.0570    5.7830    4.8780 c3        1 MOL      0.040617
     27 N3         -1.7710    6.3050    5.2260 n4        1 MOL     -0.378791
     28 H8         -1.0950    5.0290   -0.7980 hn        1 MOL      0.294906
     29 H9         -1.7600    2.8300    0.9230 h1        1 MOL     -0.077791
     30 H10        -4.0870    3.9980    1.3970 hc        1 MOL      0.128588
     31 H11        -3.4170    5.3560    0.5450 hc        1 MOL      0.128588
     32 H12        -1.5850    5.3130    2.4730 hc        1 MOL      0.000505
     33 H13        -2.2750    3.9610    3.0610 hc        1 MOL      0.000505
     34 H14        -4.4140    5.4610    3.3720 hc        1 MOL      0.056630
     35 H15        -3.2800    6.7640    2.9200 hc        1 MOL      0.056630
     36 H16        -3.1860    4.7340    5.1610 hx        1 MOL      0.077878
     37 H17        -3.7630    6.3960    5.4370 hx        1 MOL      0.077878
     38 H18        -0.9920    5.7710    4.8690 hn        1 MOL      0.341996
     39 H19        -1.7490    7.2920    4.9830 hn        1 MOL      0.341996
     40 H20        -1.6770    6.2120    6.2260 hn        1 MOL      0.341996
     41 N4         -3.3640    1.7430   -0.8670 n         1 MOL     -0.388570
     42 C13        -3.1780    0.7510    0.1810 c3        1 MOL      0.093928
     43 C14        -3.5200    1.1550    1.5990 c         1 MOL      0.481528
     44 O6         -2.6230    1.0480    2.4200 o         1 MOL     -0.586673
     45 C15        -1.8320   -0.0010   -0.0720 c3        1 MOL     -0.216751
     46 C16        -1.5490   -0.5550   -1.4460 c         1 MOL      0.820107
     47 O7         -2.4780   -0.5660   -2.2990 o         1 MOL     -0.816071
     48 O8         -0.3780   -0.6590   -1.7680 o         1 MOL     -0.816071
     49 H21        -3.7980    1.3900   -1.7170 hn        1 MOL      0.316352
     50 H22        -3.9150   -0.0270   -0.0360 h1        1 MOL      0.130477
     51 H23        -1.7260   -0.8350    0.6140 hc        1 MOL      0.090394
     52 H24        -1.0180    0.6880    0.1300 hc        1 MOL      0.090394
     53 N5         -4.7180    1.6500    1.8960 n         1 MOL     -0.450939
     54 C17        -5.9250    1.7440    1.0020 c3        1 MOL      0.085896
     55 C18        -7.2320    1.0530    1.5440 c         1 MOL      0.509287
     56 O9         -7.3850    0.6190    2.6670 o         1 MOL     -0.536715
     57 H25        -4.8910    2.0900    2.7840 hn        1 MOL      0.294179
     58 H26        -5.6870    1.2410    0.0750 h1        1 MOL      0.003909
     59 H27        -6.1190    2.8090    0.8850 h1        1 MOL      0.003909
     60 N6         -8.2670    0.9760    0.7110 n         1 MOL     -0.427202
     61 C19        -8.2960    1.3030   -0.7420 c3        1 MOL     -0.085475
     62 C20        -7.6630    0.1650   -1.6210 c         1 MOL      0.488839
     63 O10        -7.5650    0.2410   -2.8580 o         1 MOL     -0.565149
     64 C21        -9.7570    1.4350   -1.1800 c3        1 MOL     -0.231817
     65 C22       -10.8010    0.4140   -0.5910 c         1 MOL      0.694508
     66 O11       -10.5380   -0.5180    0.1740 o         1 MOL     -0.632140
     67 O12       -12.0020    0.6870   -0.8350 o         1 MOL     -0.632140
     68 H28        -9.1780    0.7960    1.1020 hn        1 MOL      0.326266
     69 H29        -7.9220    2.2930   -0.9910 h1        1 MOL      0.101248
     70 H30        -9.7740    1.4370   -2.2650 hc        1 MOL      0.075759
     71 H31       -10.1090    2.4530   -1.0180 hc        1 MOL      0.075759
     72 N7         -7.2210   -0.8870   -0.9750 n         1 MOL     -0.185253
     73 C23        -6.3780   -1.8940   -1.6390 c3        1 MOL     -0.232577
     74 C24        -5.7160   -2.8070   -0.5570 c         1 MOL      0.563680
     75 O13        -5.8650   -2.5900    0.6320 o         1 MOL     -0.488713
     76 H32        -7.4080   -0.8390    0.0080 hn        1 MOL      0.204952
     77 H33        -5.6630   -1.3360   -2.2480 h1        1 MOL      0.121270
     78 H34        -6.9330   -2.5320   -2.3220 h1        1 MOL      0.121270
     79 N8         -4.9950   -3.8030   -0.9810 n         1 MOL     -0.497521
     80 C25        -4.2180   -4.6310    0.0180 c3        1 MOL     -0.040466
     81 C26        -2.7020   -4.1070    0.2770 c         1 MOL      0.560394
     82 O14        -2.1240   -3.5880   -0.6310 o         1 MOL     -0.514520
     83 C27        -4.1820   -6.1620   -0.3480 c3        1 MOL      0.431788
     84 C28        -3.9540   -6.5030   -1.7690 c3        1 MOL     -0.285715
     85 O15        -5.3890   -6.6970    0.0470 oh        1 MOL     -0.638207
     86 H35        -4.9730   -3.9360   -1.9820 hn        1 MOL      0.316301
     87 H36        -4.6540   -4.6060    1.0210 h1        1 MOL      0.064087
     88 H37        -3.3910   -6.6060    0.2630 h1        1 MOL      0.035558
     89 H38        -6.0410   -6.2310   -0.4850 ho        1 MOL      0.390518
     90 H39        -4.6220   -5.9500   -2.4470 hc        1 MOL      0.063832
     91 H40        -2.9140   -6.3020   -2.0300 hc        1 MOL      0.063832
     92 H41        -4.0290   -7.5790   -1.9170 hc        1 MOL      0.063832
     93 N9         -2.2100   -4.3030    1.4720 n         1 MOL     -0.393371
     94 C29        -0.8160   -3.8850    1.7570 c3        1 MOL     -0.315208
     95 C30         0.0780   -5.0610    1.4060 c         1 MOL      0.625519
     96 O16         0.0140   -6.1830    1.9540 o         1 MOL     -0.534992
     97 C31        -0.6430   -3.5580    3.2970 c3        1 MOL      0.027415
     98 C32        -1.5020   -2.3130    3.7490 c3        1 MOL      0.145758
     99 C33         0.7680   -3.3950    3.7560 c3        1 MOL     -0.210862
    100 C34        -1.7710   -2.1060    5.2310 c3        1 MOL     -0.209389
    101 H42        -2.6570   -4.8310    2.2110 hn        1 MOL      0.295437
    102 H43        -0.5130   -3.0280    1.1640 h1        1 MOL      0.157231
    103 H44        -1.0780   -4.3910    3.8430 hc        1 MOL      0.055106
    104 H45        -2.4380   -2.3870    3.2010 hc        1 MOL      0.011927
    105 H46        -0.9300   -1.4420    3.4310 hc        1 MOL      0.011927
    106 H47         1.2520   -2.6900    3.0900 hc        1 MOL      0.053847
    107 H48         0.8200   -2.8850    4.7270 hc        1 MOL      0.053847
    108 H49         1.3620   -4.3000    3.7510 hc        1 MOL      0.053847
    109 H50        -2.6560   -1.4950    5.4230 hc        1 MOL      0.048821
    110 H51        -1.9450   -3.0800    5.6830 hc        1 MOL      0.048821
    111 H52        -0.9910   -1.5220    5.7340 hc        1 MOL      0.048821
    112 N10         0.9540   -4.7920    0.3910 n         1 MOL     -0.394964
    113 C35         2.0740   -5.7510   -0.0950 c3        1 MOL     -0.075063
    114 C36         3.4350   -5.3010    0.2760 c         1 MOL      0.356614
    115 O17         4.4040   -5.9590    0.0130 o         1 MOL     -0.521278
    116 C37         1.8400   -6.0790   -1.6150 c3        1 MOL      0.297703
    117 C38         2.3010   -4.8830   -2.5550 c3        1 MOL     -0.275604
    118 O18         0.4250   -6.3280   -1.8570 oh        1 MOL     -0.625881
    119 H53         0.8630   -3.8900   -0.0730 hn        1 MOL      0.360916
    120 H54         1.8910   -6.7360    0.3490 h1        1 MOL      0.152359
    121 H55         2.4320   -6.9330   -1.9220 h1        1 MOL      0.027230
    122 H56         0.3960   -6.4580   -2.8100 ho        1 MOL      0.397533
    123 H57         1.7680   -3.9910   -2.2230 hc        1 MOL      0.077434
    124 H58         3.3760   -4.7620   -2.5190 hc        1 MOL      0.077434
    125 H59         2.0610   -5.1320   -3.5920 hc        1 MOL      0.077434
    126 N11         3.5230   -4.1310    0.8650 n         1 MOL     -0.108705
    127 C39         4.7200   -3.3370    1.2380 c3        1 MOL      0.007448
    128 C40         5.4720   -2.8490   -0.0580 c         1 MOL      0.438645
    129 O19         5.0650   -3.1540   -1.1790 o         1 MOL     -0.434059
    130 C41         5.5860   -4.0170    2.2950 c3        1 MOL      0.326710
    131 C42         4.7090   -4.2790    3.5310 c3        1 MOL     -0.347686
    132 O20         6.5770   -3.1420    2.7520 oh        1 MOL     -0.674682
    133 H60         2.6020   -3.7090    0.8540 hn        1 MOL      0.119818
    134 H61         4.4400   -2.3430    1.5880 h1        1 MOL      0.067847
    135 H62         6.0400   -4.9110    1.8600 h1        1 MOL      0.031361
    136 H63         7.0010   -3.6470    3.4500 ho        1 MOL      0.409290
    137 H64         4.5430   -3.3470    4.0750 hc        1 MOL      0.087305
    138 H65         3.8040   -4.8090    3.2820 hc        1 MOL      0.087305
    139 H66         5.3810   -4.8830    4.1470 hc        1 MOL      0.087305
    140 N12         6.5270   -2.0190    0.1040 n         1 MOL     -0.314225
    141 C43         7.3600   -1.5590   -0.9630 c3        1 MOL      0.059047
    142 C44         6.7750   -0.4660   -1.7900 c         1 MOL      0.537194
    143 O21         7.2260   -0.2650   -2.9110 o         1 MOL     -0.568394
    144 C45         8.7630   -1.2930   -0.3690 c3        1 MOL     -0.416574
    145 C46         8.9180   -0.2340    0.7460 c3        1 MOL      0.039604
    146 C47        10.3290    0.2140    1.0270 c3        1 MOL     -0.073177
    147 C48        10.3600    1.3220    2.0610 c3        1 MOL     -0.036730
    148 N13         9.9460    0.8820    3.4450 n4        1 MOL     -0.282126
    149 H67         6.7980   -1.7740    1.0410 hn        1 MOL      0.209600
    150 H68         7.3600   -2.4050   -1.6550 h1        1 MOL      0.093868
    151 H69         9.4080   -1.0210   -1.2050 hc        1 MOL      0.146497
    152 H70         9.0210   -2.2750    0.0390 hc        1 MOL      0.146497
    153 H71         8.3560   -0.5550    1.6220 hc        1 MOL      0.034455
    154 H72         8.4210    0.7270    0.5610 hc        1 MOL      0.034455
    155 H73        10.7230    0.4950    0.0440 hc        1 MOL      0.058071
    156 H74        10.9610   -0.5390    1.4940 hc        1 MOL      0.058071
    157 H75         9.8120    2.1560    1.6220 hx        1 MOL      0.104605
    158 H76        11.3890    1.6580    2.1930 hx        1 MOL      0.104605
    159 H77         9.0100    0.4980    3.4750 hn        1 MOL      0.261536
    160 H78        10.6480    0.2730    3.8290 hn        1 MOL      0.261536
    161 H79        10.0080    1.6960    4.0420 hn        1 MOL      0.261536
    162 N14         6.0530    0.3910   -1.1000 n         1 MOL     -0.290523
    163 C49         5.3690    1.5920   -1.6010 c3        1 MOL      0.013461
    164 C50         6.3380    2.8080   -1.7770 c         1 MOL      0.402919
    165 O22         6.2090    3.9300   -1.3860 o         1 MOL     -0.454106
    166 C51         4.1800    1.9370   -0.6200 c3        1 MOL     -0.137474
    167 C52         3.1830    0.8410   -0.5650 c3        1 MOL      0.373134
    168 C53         2.5300    0.6310   -1.9290 c         1 MOL      0.738595
    169 O23         2.6280   -0.4720   -2.4960 o         1 MOL     -0.834270
    170 O24         1.8500    1.4980   -2.4860 o         1 MOL     -0.834270
    171 H80         5.9980    0.2690   -0.0970 hn        1 MOL      0.214525
    172 H81         4.9670    1.3600   -2.5920 h1        1 MOL      0.117941
    173 H82         3.7130    2.9020   -0.7960 hc        1 MOL      0.005344
    174 H83         4.5410    2.0390    0.4020 hc        1 MOL      0.005344
    175 H84         2.3720    1.1000    0.1100 hc        1 MOL     -0.113390
    176 H85         3.6190   -0.1050   -0.2620 hc        1 MOL     -0.113390
    177 N15         7.3810    2.5430   -2.5800 n         1 MOL     -0.284506
    178 C54         8.2690    3.4990   -3.1300 c3        1 MOL     -0.077627
    179 H86         9.1950    3.0060   -3.4240 h1        1 MOL      0.056526
    180 H87         7.8100    3.9610   -4.0040 h1        1 MOL      0.056526
    181 H88         8.4870    4.2650   -2.3860 h1        1 MOL      0.056526
    182 H89         7.5060    1.6310   -2.9860 hn        1 MOL      0.257597
    183 Ca1         0.1230    0.4400   -3.9280 Ca        1 MOL      1.789463
    184 O25        -0.6740    2.7990   -3.1510 oh        1 MOL     -0.942655
    185 H90        -0.1030    3.5130   -2.8860 ho        1 MOL      0.459819
    186 H91        -1.5610    3.1600   -3.0610 ho        1 MOL      0.459819
    187 O26        -2.3950    0.9260   -4.6720 oh        1 MOL     -0.942655
    188 H92        -3.0450    1.3600   -5.2180 ho        1 MOL      0.459819
    189 H93        -2.8620    0.6920   -3.8690 ho        1 MOL      0.459819
@<TRIPOS>BOND
     1    1    2 1   
     2    1    4 1   
     3    1    5 1   
     4    1    6 1   
     5    2    3 2   
     6    2    7 1   
     7    7    8 1   
     8    7   15 1   
     9    8    9 1   
    10    8   11 1   
    11    8   16 1   
    12    9   10 2   
    13    9   19 1   
    14   11   12 1   
    15   11   17 1   
    16   11   18 1   
    17   12   13 1   
    18   12   14 1   
    19   19   20 1   
    20   19   28 1   
    21   20   21 1   
    22   20   23 1   
    23   20   29 1   
    24   21   22 2   
    25   21   41 1   
    26   23   24 1   
    27   23   30 1   
    28   23   31 1   
    29   24   25 1   
    30   24   32 1   
    31   24   33 1   
    32   25   26 1   
    33   25   34 1   
    34   25   35 1   
    35   26   27 1   
    36   26   36 1   
    37   26   37 1   
    38   27   38 1   
    39   27   39 1   
    40   27   40 1   
    41   41   42 1   
    42   41   49 1   
    43   42   43 1   
    44   42   45 1   
    45   42   50 1   
    46   43   44 2   
    47   43   53 1   
    48   45   46 1   
    49   45   51 1   
    50   45   52 1   
    51   46   47 1   
    52   46   48 1   
    53   53   54 1   
    54   53   57 1   
    55   54   55 1   
    56   54   58 1   
    57   54   59 1   
    58   55   56 2   
    59   55   60 1   
    60   60   61 1   
    61   60   68 1   
    62   61   62 1   
    63   61   64 1   
    64   61   69 1   
    65   62   63 2   
    66   62   72 1   
    67   64   65 1   
    68   64   70 1   
    69   64   71 1   
    70   65   66 1   
    71   65   67 1   
    72   72   73 1   
    73   72   76 1   
    74   73   74 1   
    75   73   77 1   
    76   73   78 1   
    77   74   75 2   
    78   74   79 1   
    79   79   80 1   
    80   79   86 1   
    81   80   81 1   
    82   80   83 1   
    83   80   87 1   
    84   81   82 2   
    85   81   93 1   
    86   83   84 1   
    87   83   85 1   
    88   83   88 1   
    89   84   90 1   
    90   84   91 1   
    91   84   92 1   
    92   85   89 1   
    93   93   94 1   
    94   93  101 1   
    95   94   95 1   
    96   94   97 1   
    97   94  102 1   
    98   95   96 2   
    99   95  112 1   
   100   97   98 1   
   101   97   99 1   
   102   97  103 1   
   103   98  100 1   
   104   98  104 1   
   105   98  105 1   
   106   99  106 1   
   107   99  107 1   
   108   99  108 1   
   109  100  109 1   
   110  100  110 1   
   111  100  111 1   
   112  112  113 1   
   113  112  119 1   
   114  113  114 1   
   115  113  116 1   
   116  113  120 1   
   117  114  115 2   
   118  114  126 1   
   119  116  117 1   
   120  116  118 1   
   121  116  121 1   
   122  117  123 1   
   123  117  124 1   
   124  117  125 1   
   125  118  122 1   
   126  126  127 1   
   127  126  133 1   
   128  127  128 1   
   129  127  130 1   
   130  127  134 1   
   131  128  129 2   
   132  128  140 1   
   133  130  131 1   
   134  130  132 1   
   135  130  135 1   
   136  131  137 1   
   137  131  138 1   
   138  131  139 1   
   139  132  136 1   
   140  140  141 1   
   141  140  149 1   
   142  141  142 1   
   143  141  144 1   
   144  141  150 1   
   145  142  143 2   
   146  142  162 1   
   147  144  145 1   
   148  144  151 1   
   149  144  152 1   
   150  145  146 1   
   151  145  153 1   
   152  145  154 1   
   153  146  147 1   
   154  146  155 1   
   155  146  156 1   
   156  147  148 1   
   157  147  157 1   
   158  147  158 1   
   159  148  159 1   
   160  148  160 1   
   161  148  161 1   
   162  162  163 1   
   163  162  171 1   
   164  163  164 1   
   165  163  166 1   
   166  163  172 1   
   167  164  165 2   
   168  164  177 1   
   169  166  167 1   
   170  166  173 1   
   171  166  174 1   
   172  167  168 1   
   173  167  175 1   
   174  167  176 1   
   175  168  169 1   
   176  168  170 1   
   177  177  178 1   
   178  177  182 1   
   179  178  179 1   
   180  178  180 1   
   181  178  181 1   
   182  184  185 1   
   183  184  186 1   
   184  187  188 1   
   185  187  189 1   
@<TRIPOS>SUBSTRUCTURE
     1 MOL         1 TEMP              0 ****  ****    0 ROOT
