@<TRIPOS>MOLECULE
MOL
  195   189     1     0     0
SMALL
resp


@<TRIPOS>ATOM
      1 C1          6.4330    1.9950    5.5580 c3        1 MOL     -0.346671
      2 C2          5.6700    1.5430    4.3470 c         1 MOL      0.715070
      3 O1          5.5310    2.2950    3.3330 o         1 MOL     -0.617217
      4 H1          6.5830    3.0740    5.5090 hc        1 MOL      0.094474
      5 H2          5.8680    1.7470    6.4570 hc        1 MOL      0.094474
      6 H3          7.4010    1.4950    5.5860 hc        1 MOL      0.094474
      7 N1          5.4080    0.2300    4.1970 n         1 MOL     -0.511586
      8 C3          5.0780   -0.5670    2.9660 c3        1 MOL      0.269510
      9 C4          3.6820   -0.3780    2.4110 c         1 MOL     -0.026408
     10 O2          3.3750   -0.7860    1.2580 o         1 MOL     -0.340219
     11 C5          5.1640   -2.1280    3.2070 c3        1 MOL     -0.164436
     12 C6          6.2990   -2.6370    4.0810 c         1 MOL      0.715016
     13 O3          6.9370   -1.8890    4.8900 o         1 MOL     -0.691431
     14 O4          6.4890   -3.8380    4.0170 o         1 MOL     -0.691431
     15 H4          5.6700   -0.3420    4.9950 hn        1 MOL      0.246568
     16 H5          5.8110   -0.3980    2.1760 h1        1 MOL      0.100200
     17 H6          5.1820   -2.6450    2.2480 hc        1 MOL      0.015155
     18 H7          4.2620   -2.3860    3.7560 hc        1 MOL      0.015155
     19 N2          2.7860    0.3230    3.1610 n         1 MOL     -0.162484
     20 C7          1.3240    0.5440    2.9890 c3        1 MOL      0.234946
     21 C8          0.9960    1.9250    2.4900 c         1 MOL      0.360199
     22 O5          1.5570    2.8800    3.0250 o         1 MOL     -0.517362
     23 C9          0.6340    0.1070    4.3020 c3        1 MOL     -0.285932
     24 C10         0.5250   -1.4020    4.4580 c3        1 MOL     -0.034396
     25 C11        -0.3860   -1.7550    5.5500 c3        1 MOL     -0.105625
     26 C12        -0.1450   -3.2810    5.8750 c3        1 MOL      0.092806
     27 N3         -0.5270   -4.1720    4.7900 n4        1 MOL     -0.305848
     28 H8          3.1640    0.7610    3.9830 hn        1 MOL      0.161445
     29 H9          1.0280   -0.0800    2.1530 h1        1 MOL      0.078053
     30 H10        -0.3270    0.5940    4.3730 hc        1 MOL      0.105048
     31 H11         1.2250    0.6350    5.0480 hc        1 MOL      0.105048
     32 H12         1.4780   -1.9160    4.5880 hc        1 MOL      0.087220
     33 H13         0.0360   -1.7880    3.5670 hc        1 MOL      0.087220
     34 H14        -1.4030   -1.6950    5.1780 hc        1 MOL      0.071758
     35 H15        -0.2300   -1.1060    6.4060 hc        1 MOL      0.071758
     36 H16        -0.7270   -3.5010    6.7720 hx        1 MOL      0.043987
     37 H17         0.9010   -3.5400    6.0670 hx        1 MOL      0.043987
     38 H18        -0.1160   -5.0810    4.9420 hn        1 MOL      0.310987
     39 H19        -1.5200   -4.4060    4.8270 hn        1 MOL      0.310987
     40 H20        -0.3700   -3.8570    3.8510 hn        1 MOL      0.310987
     41 N4          0.2020    2.1680    1.5000 n         1 MOL     -0.180704
     42 C13        -0.6450    1.3190    0.7190 c3        1 MOL      0.011367
     43 C14        -1.5160    0.2040    1.4680 c         1 MOL      0.556997
     44 O6         -1.2140   -0.9830    1.4100 o         1 MOL     -0.561896
     45 C15         0.0050    0.7600   -0.4790 c3        1 MOL     -0.620964
     46 C16         0.8690    1.7940   -1.3050 c         1 MOL      0.815334
     47 O7          0.6320    3.0320   -1.1240 o         1 MOL     -0.665654
     48 O8          1.8120    1.3880   -2.0480 o         1 MOL     -0.665654
     49 H21         0.3640    3.0320    1.0070 hn        1 MOL      0.125824
     50 H22        -1.3680    2.0610    0.3710 h1        1 MOL      0.003386
     51 H23        -0.7260    0.2780   -1.1220 hc        1 MOL      0.185549
     52 H24         0.7180   -0.0060   -0.1680 hc        1 MOL      0.185549
     53 N5         -2.5550    0.5780    2.2280 n         1 MOL     -0.563778
     54 C17        -3.4160    1.8110    2.0700 c3        1 MOL      0.096495
     55 C18        -4.6680    1.8410    2.9860 c         1 MOL      0.524449
     56 O9         -4.9510    0.9180    3.7710 o         1 MOL     -0.537911
     57 H25        -3.0410   -0.1930    2.6700 hn        1 MOL      0.325397
     58 H26        -3.7970    1.9550    1.0650 h1        1 MOL      0.049568
     59 H27        -2.7700    2.6640    2.3090 h1        1 MOL      0.049568
     60 N6         -5.5790    2.8120    2.7970 n         1 MOL     -0.464629
     61 C19        -5.4860    3.8390    1.7130 c3        1 MOL     -0.123355
     62 C20        -6.3890    3.4630    0.5390 c         1 MOL      0.560823
     63 O10        -7.3020    2.6710    0.7470 o         1 MOL     -0.408584
     64 C21        -5.9860    5.2530    2.2540 c3        1 MOL     -0.097444
     65 C22        -7.3850    5.1800    2.5630 c         1 MOL      0.687806
     66 O11        -7.7830    4.4100    3.5020 o         1 MOL     -0.637405
     67 O12        -8.2140    5.8340    1.8770 o         1 MOL     -0.637405
     68 H28        -6.4650    2.7410    3.2710 hn        1 MOL      0.350327
     69 H29        -4.4680    4.0480    1.3840 h1        1 MOL      0.055806
     70 H30        -5.7590    6.0710    1.5790 hc        1 MOL      0.011686
     71 H31        -5.4870    5.6010    3.1600 hc        1 MOL      0.011686
     72 N7         -6.0790    3.9750   -0.6600 n         1 MOL     -0.322207
     73 C23        -6.6520    3.4470   -1.8990 c3        1 MOL     -0.304347
     74 C24        -6.3220    1.9520   -2.2570 c         1 MOL      0.545094
     75 O13        -7.2290    1.2800   -2.7450 o         1 MOL     -0.515894
     76 H32        -5.2470    4.5490   -0.6780 hn        1 MOL      0.225896
     77 H33        -6.0360    3.9870   -2.6190 h1        1 MOL      0.147703
     78 H34        -7.6960    3.7630   -1.9870 h1        1 MOL      0.147703
     79 N8         -5.1650    1.4490   -1.8050 n         1 MOL     -0.452772
     80 C25        -4.7680    0.0320   -2.1480 c3        1 MOL     -0.031301
     81 C26        -5.2870   -0.9340   -0.9880 c         1 MOL      0.663043
     82 O14        -5.3550   -0.5590    0.1870 o         1 MOL     -0.488985
     83 C27        -3.2960   -0.2000   -2.3950 c3        1 MOL      0.176034
     84 C28        -2.6410    0.5820   -3.4970 c3        1 MOL     -0.224118
     85 O15        -3.0500   -1.5350   -2.6320 oh        1 MOL     -0.534464
     86 H35        -4.4990    2.0840   -1.4000 hn        1 MOL      0.272707
     87 H36        -5.2590   -0.3270   -3.0540 h1        1 MOL      0.094019
     88 H37        -2.8300    0.1850   -1.4930 h1        1 MOL      0.111898
     89 H38        -2.1540   -1.7690   -2.3920 ho        1 MOL      0.314510
     90 H39        -2.9730    0.2980   -4.5060 hc        1 MOL      0.064964
     91 H40        -2.6870    1.6400   -3.2380 hc        1 MOL      0.064964
     92 H41        -1.5800    0.3940   -3.3850 hc        1 MOL      0.064964
     93 N9         -5.6260   -2.1680   -1.3550 n         1 MOL     -0.552202
     94 C29        -5.7740   -3.2740   -0.3910 c3        1 MOL     -0.086985
     95 C30        -4.5370   -4.0770   -0.1610 c         1 MOL      0.481494
     96 O16        -4.5620   -4.9280    0.6870 o         1 MOL     -0.563102
     97 C31        -7.1610   -3.9970   -0.5770 c3        1 MOL      0.006285
     98 C32        -7.2380   -5.0040   -1.7600 c3        1 MOL      0.110996
     99 C33        -8.2740   -2.9150   -0.7360 c3        1 MOL     -0.128926
    100 C34        -8.5550   -5.7050   -1.9880 c3        1 MOL     -0.162855
    101 H42        -5.6120   -2.4370   -2.3250 hn        1 MOL      0.315714
    102 H43        -5.9360   -2.8160    0.5920 h1        1 MOL      0.167428
    103 H44        -7.4350   -4.4210    0.3880 hc        1 MOL      0.046667
    104 H45        -6.4850   -5.7800   -1.6450 hc        1 MOL     -0.012953
    105 H46        -7.0100   -4.5610   -2.7250 hc        1 MOL     -0.012953
    106 H47        -8.1300   -2.3860   -1.6790 hc        1 MOL      0.053459
    107 H48        -9.3050   -3.2630   -0.7750 hc        1 MOL      0.053459
    108 H49        -8.1810   -2.2230    0.1050 hc        1 MOL      0.053459
    109 H50        -8.9370   -6.0080   -1.0160 hc        1 MOL      0.034690
    110 H51        -9.3190   -5.0200   -2.3550 hc        1 MOL      0.034690
    111 H52        -8.5100   -6.6380   -2.5490 hc        1 MOL      0.034690
    112 N10        -3.5070   -3.8720   -0.9940 n         1 MOL     -0.320395
    113 C35        -2.2340   -4.6190   -0.9140 c3        1 MOL      0.173909
    114 C36        -1.0730   -3.6090   -0.8140 c         1 MOL      0.495915
    115 O17        -0.9740   -2.5790   -1.4680 o         1 MOL     -0.424550
    116 C37        -2.1600   -5.5810   -2.0860 c3        1 MOL      0.200596
    117 C38        -3.2660   -6.6050   -2.1270 c3        1 MOL     -0.183834
    118 O18        -1.1600   -6.4860   -1.8640 oh        1 MOL     -0.651938
    119 H53        -3.6710   -3.0830   -1.6060 hn        1 MOL      0.137401
    120 H54        -2.1690   -5.1650    0.0300 h1        1 MOL      0.029212
    121 H55        -2.1050   -5.0320   -3.0250 h1        1 MOL      0.041087
    122 H56        -1.2220   -7.2410   -2.4530 ho        1 MOL      0.417543
    123 H57        -3.3720   -7.2350   -1.2440 hc        1 MOL      0.053667
    124 H58        -4.2470   -6.3200   -2.5230 hc        1 MOL      0.053667
    125 H59        -2.9690   -7.3880   -2.8270 hc        1 MOL      0.053667
    126 N11        -0.0430   -3.9360   -0.0200 n         1 MOL     -0.444796
    127 C39         1.1140   -3.1200    0.2590 c3        1 MOL     -0.060638
    128 C40         1.9850   -2.9710   -1.0670 c         1 MOL      0.465889
    129 O19         1.8470   -3.8670   -1.9110 o         1 MOL     -0.523896
    130 C41         1.9590   -3.7010    1.4050 c3        1 MOL      0.093506
    131 C42         2.7700   -4.9610    0.9490 c3        1 MOL      0.009092
    132 O20         1.0660   -4.0870    2.3840 oh        1 MOL     -0.691011
    133 H60        -0.0460   -4.8750    0.3620 hn        1 MOL      0.336658
    134 H61         0.7740   -2.1310    0.5700 h1        1 MOL      0.207036
    135 H62         2.5690   -2.9450    1.8890 h1        1 MOL      0.062240
    136 H63         1.6820   -4.5490    2.9570 ho        1 MOL      0.416968
    137 H64         3.6490   -4.6830    0.3720 hc        1 MOL      0.015444
    138 H65         3.1390   -5.5940    1.7630 hc        1 MOL      0.015444
    139 H66         2.1060   -5.5900    0.3530 hc        1 MOL      0.015444
    140 N12         2.9010   -2.0000   -1.0970 n         1 MOL     -0.273402
    141 C43         3.9310   -1.8830   -2.2460 c3        1 MOL      0.000537
    142 C44         4.6280   -0.4380   -2.2690 c         1 MOL      0.644562
    143 O21         5.2150   -0.0110   -3.2500 o         1 MOL     -0.614350
    144 C45         4.9190   -3.0320   -2.1280 c3        1 MOL     -0.076225
    145 C46         5.9300   -3.3070   -3.2740 c3        1 MOL     -0.130633
    146 C47         5.3800   -3.3500   -4.6690 c3        1 MOL      0.037030
    147 C48         6.5120   -3.7660   -5.4690 c3        1 MOL      0.010266
    148 N13         6.2320   -3.9390   -6.9070 n4        1 MOL     -0.441303
    149 H67         2.8880   -1.2460   -0.4290 hn        1 MOL      0.113754
    150 H68         3.3310   -2.0140   -3.1470 h1        1 MOL      0.037407
    151 H69         4.3510   -3.9620   -2.0280 hc        1 MOL      0.086261
    152 H70         5.5610   -2.9390   -1.2520 hc        1 MOL      0.086261
    153 H71         6.4830   -4.2260   -3.0640 hc        1 MOL      0.043654
    154 H72         6.5770   -2.4310   -3.2470 hc        1 MOL      0.043654
    155 H73         5.1400   -2.3130   -4.8890 hc        1 MOL      0.030801
    156 H74         4.5720   -4.0790   -4.7290 hc        1 MOL      0.030801
    157 H75         6.9010   -4.6430   -4.9550 hx        1 MOL      0.093522
    158 H76         7.1880   -2.9170   -5.3750 hx        1 MOL      0.093522
    159 H77         6.9820   -4.3070   -7.4860 hn        1 MOL      0.342330
    160 H78         5.5300   -4.6680   -6.9450 hn        1 MOL      0.342330
    161 H79         5.8840   -3.0570   -7.2620 hn        1 MOL      0.342330
    162 N14         4.6570    0.2490   -1.1410 n         1 MOL     -0.291549
    163 C49         5.0360    1.6740   -1.0510 c3        1 MOL     -0.247233
    164 C50         6.4840    1.9340   -0.8700 c         1 MOL      0.528196
    165 O22         7.0570    1.4830    0.1150 o         1 MOL     -0.522179
    166 C51         4.2270    2.3200    0.0910 c3        1 MOL      0.523726
    167 C52         4.4100    3.7740    0.2920 c3        1 MOL     -0.436226
    168 C53         3.9880    4.7280   -0.8600 c         1 MOL      0.731788
    169 O23         4.8660    5.1100   -1.6830 o         1 MOL     -0.765599
    170 O24         2.8740    5.2180   -1.0100 o         1 MOL     -0.765599
    171 H80         4.4310   -0.2210   -0.2830 hn        1 MOL      0.158998
    172 H81         4.7840    2.1210   -2.0120 h1        1 MOL      0.124541
    173 H82         4.4430    1.7750    1.0180 hc        1 MOL     -0.050460
    174 H83         3.1510    2.2040   -0.0730 hc        1 MOL     -0.050460
    175 H84         5.4670    3.9950    0.4070 hc        1 MOL      0.129112
    176 H85         3.8510    4.0300    1.1820 hc        1 MOL      0.129112
    177 N15         7.0850    2.6830   -1.8210 n         1 MOL     -0.256033
    178 C54         8.5590    2.9280   -1.9420 c3        1 MOL     -0.287276
    179 H86         8.7310    3.9570   -2.2560 h1        1 MOL      0.119490
    180 H87         9.0370    2.7580   -0.9770 h1        1 MOL      0.119490
    181 H88         8.9820    2.2480   -2.6820 h1        1 MOL      0.119490
    182 H89         6.4550    3.0270   -2.5220 hn        1 MOL      0.299996
    183 Ca1         0.6470    5.4560   -2.0400 Ca        1 MOL      1.544970
    184 O25         0.4650    6.9470   -4.3750 oh        1 MOL     -0.747166
    185 H90         0.3170    7.0340   -5.3130 ho        1 MOL      0.365718
    186 H91         0.8170    7.8030   -4.1070 ho        1 MOL      0.365718
    187 O26        -1.4380    4.0950   -3.5330 oh        1 MOL     -0.747166
    188 H92        -2.1060    4.6910   -3.8700 ho        1 MOL      0.365718
    189 H93        -1.0270    3.7280   -4.3230 ho        1 MOL      0.365718
    190 O27         1.4660    3.4820   -3.8630 oh        1 MOL     -0.747166
    191 H94         1.6100    2.7490   -3.2580 ho        1 MOL      0.365718
    192 H95         2.3350    3.6500   -4.2360 ho        1 MOL      0.365718
    193 O28         3.0190    6.5370   -3.2780 oh        1 MOL     -0.747166
    194 H96         3.4100    6.0440   -2.5590 ho        1 MOL      0.365718
    195 H97         2.9480    7.4300   -2.9530 ho        1 MOL      0.365718
@<TRIPOS>BOND
     1    1    2 1   
     2    1    4 1   
     3    1    5 1   
     4    1    6 1   
     5    2    3 2   
     6    2    7 1   
     7    7    8 1   
     8    7   15 1   
     9    8    9 1   
    10    8   11 1   
    11    8   16 1   
    12    9   10 2   
    13    9   19 1   
    14   11   12 1   
    15   11   17 1   
    16   11   18 1   
    17   12   13 1   
    18   12   14 1   
    19   19   20 1   
    20   19   28 1   
    21   20   21 1   
    22   20   23 1   
    23   20   29 1   
    24   21   22 2   
    25   21   41 1   
    26   23   24 1   
    27   23   30 1   
    28   23   31 1   
    29   24   25 1   
    30   24   32 1   
    31   24   33 1   
    32   25   26 1   
    33   25   34 1   
    34   25   35 1   
    35   26   27 1   
    36   26   36 1   
    37   26   37 1   
    38   27   38 1   
    39   27   39 1   
    40   27   40 1   
    41   41   42 1   
    42   41   49 1   
    43   42   43 1   
    44   42   45 1   
    45   42   50 1   
    46   43   44 2   
    47   43   53 1   
    48   45   46 1   
    49   45   51 1   
    50   45   52 1   
    51   46   47 1   
    52   46   48 1   
    53   53   54 1   
    54   53   57 1   
    55   54   55 1   
    56   54   58 1   
    57   54   59 1   
    58   55   56 2   
    59   55   60 1   
    60   60   61 1   
    61   60   68 1   
    62   61   62 1   
    63   61   64 1   
    64   61   69 1   
    65   62   63 2   
    66   62   72 1   
    67   64   65 1   
    68   64   70 1   
    69   64   71 1   
    70   65   66 1   
    71   65   67 1   
    72   72   73 1   
    73   72   76 1   
    74   73   74 1   
    75   73   77 1   
    76   73   78 1   
    77   74   75 2   
    78   74   79 1   
    79   79   80 1   
    80   79   86 1   
    81   80   81 1   
    82   80   83 1   
    83   80   87 1   
    84   81   82 2   
    85   81   93 1   
    86   83   84 1   
    87   83   85 1   
    88   83   88 1   
    89   84   90 1   
    90   84   91 1   
    91   84   92 1   
    92   85   89 1   
    93   93   94 1   
    94   93  101 1   
    95   94   95 1   
    96   94   97 1   
    97   94  102 1   
    98   95   96 2   
    99   95  112 1   
   100   97   98 1   
   101   97   99 1   
   102   97  103 1   
   103   98  100 1   
   104   98  104 1   
   105   98  105 1   
   106   99  106 1   
   107   99  107 1   
   108   99  108 1   
   109  100  109 1   
   110  100  110 1   
   111  100  111 1   
   112  112  113 1   
   113  112  119 1   
   114  113  114 1   
   115  113  116 1   
   116  113  120 1   
   117  114  115 2   
   118  114  126 1   
   119  116  117 1   
   120  116  118 1   
   121  116  121 1   
   122  117  123 1   
   123  117  124 1   
   124  117  125 1   
   125  118  122 1   
   126  126  127 1   
   127  126  133 1   
   128  127  128 1   
   129  127  130 1   
   130  127  134 1   
   131  128  129 2   
   132  128  140 1   
   133  130  131 1   
   134  130  132 1   
   135  130  135 1   
   136  131  137 1   
   137  131  138 1   
   138  131  139 1   
   139  132  136 1   
   140  140  141 1   
   141  140  149 1   
   142  141  142 1   
   143  141  144 1   
   144  141  150 1   
   145  142  143 2   
   146  142  162 1   
   147  144  145 1   
   148  144  151 1   
   149  144  152 1   
   150  145  146 1   
   151  145  153 1   
   152  145  154 1   
   153  146  147 1   
   154  146  155 1   
   155  146  156 1   
   156  147  148 1   
   157  147  157 1   
   158  147  158 1   
   159  148  159 1   
   160  148  160 1   
   161  148  161 1   
   162  162  163 1   
   163  162  171 1   
   164  163  164 1   
   165  163  166 1   
   166  163  172 1   
   167  164  165 2   
   168  164  177 1   
   169  166  167 1   
   170  166  173 1   
   171  166  174 1   
   172  167  168 1   
   173  167  175 1   
   174  167  176 1   
   175  168  169 1   
   176  168  170 1   
   177  177  178 1   
   178  177  182 1   
   179  178  179 1   
   180  178  180 1   
   181  178  181 1   
   182  184  185 1   
   183  184  186 1   
   184  187  188 1   
   185  187  189 1   
   186  190  191 1   
   187  190  192 1   
   188  193  194 1   
   189  193  195 1   
@<TRIPOS>SUBSTRUCTURE
     1 MOL         1 TEMP              0 ****  ****    0 ROOT
