@<TRIPOS>MOLECULE
MOL
  182   178     1     0     0
SMALL
resp


@<TRIPOS>ATOM
      1 C1         -2.8650   -4.5050    5.3530 c3        1 MOL     -0.358498
      2 C2         -2.4540   -4.0000    3.9350 c         1 MOL      0.676529
      3 O1         -3.3150   -4.0600    3.0500 o         1 MOL     -0.558052
      4 H1         -2.4910   -5.5190    5.5000 hc        1 MOL      0.101786
      5 H2         -2.4380   -3.8470    6.1110 hc        1 MOL      0.101786
      6 H3         -3.9520   -4.5020    5.4400 hc        1 MOL      0.101786
      7 N1         -1.1590   -3.5640    3.7160 n         1 MOL     -0.589448
      8 C3         -0.5280   -3.2720    2.4310 c3        1 MOL     -0.054229
      9 C4         -0.3990   -4.4620    1.4850 c         1 MOL      0.630958
     10 O2          0.2050   -5.5070    1.7110 o         1 MOL     -0.520971
     11 C5          0.8670   -2.6840    2.8450 c3        1 MOL     -0.094320
     12 C6          1.6870   -2.0970    1.7510 c         1 MOL      0.410011
     13 O3          2.8460   -1.7140    1.9600 o         1 MOL     -0.599127
     14 O4          1.2670   -2.1420    0.5790 o         1 MOL     -0.599127
     15 H4         -0.5250   -3.6300    4.4970 hn        1 MOL      0.315981
     16 H5         -1.0370   -2.4460    1.9350 h1        1 MOL      0.075811
     17 H6          1.4670   -3.4120    3.3800 hc        1 MOL      0.092657
     18 H7          0.6280   -1.8620    3.5100 hc        1 MOL      0.092657
     19 N2         -1.1730   -4.3990    0.3510 n         1 MOL     -0.163668
     20 C7         -1.4310   -5.5510   -0.5370 c3        1 MOL     -0.197986
     21 C8         -0.2440   -5.9780   -1.4210 c         1 MOL      0.500455
     22 O5         -0.0980   -7.0890   -1.9110 o         1 MOL     -0.534520
     23 C9         -2.6490   -5.2400   -1.4920 c3        1 MOL      0.152178
     24 C10        -3.3910   -6.5700   -1.8840 c3        1 MOL      0.039030
     25 C11        -4.1890   -6.4510   -3.1480 c3        1 MOL     -0.026496
     26 C12        -5.3760   -5.5920   -2.8280 c3        1 MOL      0.092681
     27 N3         -6.2390   -5.3870   -3.9870 n4        1 MOL     -0.432701
     28 H8         -1.6790   -3.5290    0.2170 hn        1 MOL      0.154226
     29 H9         -1.7390   -6.3220    0.1660 h1        1 MOL      0.118506
     30 H10        -2.4290   -4.7170   -2.4180 hc        1 MOL     -0.035023
     31 H11        -3.3910   -4.6940   -0.9160 hc        1 MOL     -0.035023
     32 H12        -4.0290   -6.8980   -1.0650 hc        1 MOL      0.011453
     33 H13        -2.6680   -7.3510   -2.1030 hc        1 MOL      0.011453
     34 H14        -4.5750   -7.4420   -3.3880 hc        1 MOL      0.027274
     35 H15        -3.6120   -6.1520   -4.0180 hc        1 MOL      0.027274
     36 H16        -5.0370   -4.5940   -2.5450 hx        1 MOL      0.078162
     37 H17        -5.9200   -5.9680   -1.9670 hx        1 MOL      0.078162
     38 H18        -5.8700   -4.7120   -4.6320 hn        1 MOL      0.334325
     39 H19        -6.4310   -6.2570   -4.4630 hn        1 MOL      0.334325
     40 H20        -7.1230   -4.9810   -3.7070 hn        1 MOL      0.334325
     41 N4          0.7020   -5.0280   -1.5560 n         1 MOL     -0.196159
     42 C13         1.9290   -5.2250   -2.2420 c3        1 MOL      0.045701
     43 C14         3.0990   -5.1460   -1.3070 c         1 MOL      0.440814
     44 O6          4.0890   -5.8140   -1.5920 o         1 MOL     -0.569291
     45 C15         2.0080   -4.0670   -3.2550 c3        1 MOL     -0.361253
     46 C16         2.1930   -2.6170   -2.6600 c         1 MOL      0.786440
     47 O7          3.2070   -2.1700   -1.9910 o         1 MOL     -0.718470
     48 O8          1.2180   -1.8640   -2.8660 o         1 MOL     -0.718470
     49 H21         0.4860   -4.1610   -1.0860 hn        1 MOL      0.081394
     50 H22         1.9190   -6.1570   -2.7950 h1        1 MOL      0.117959
     51 H23         1.3210   -4.1420   -4.0950 hc        1 MOL      0.095280
     52 H24         2.9400   -4.0930   -3.8170 hc        1 MOL      0.095280
     53 N5          2.9590   -4.5690   -0.1350 n         1 MOL      0.091555
     54 C17         3.9550   -4.7000    0.9300 c3        1 MOL     -0.450788
     55 C18         5.2090   -3.8320    0.9300 c         1 MOL      0.721009
     56 O9          6.0280   -4.0040    1.7940 o         1 MOL     -0.596938
     57 H25         2.1740   -3.9420   -0.0320 hn        1 MOL     -0.109557
     58 H26         4.3110   -5.7230    0.9500 h1        1 MOL      0.171736
     59 H27         3.3990   -4.6260    1.8640 h1        1 MOL      0.171736
     60 N6          5.2830   -2.9570   -0.0540 n         1 MOL     -0.453925
     61 C19         6.3400   -1.9690   -0.3250 c3        1 MOL      0.326560
     62 C20         5.8890   -0.4730   -0.2340 c         1 MOL      0.382430
     63 O10         4.7440   -0.1510   -0.4020 o         1 MOL     -0.410669
     64 C21         6.8730   -2.2940   -1.7270 c3        1 MOL     -0.120229
     65 C22         8.2120   -1.5710   -1.9240 c         1 MOL      0.613116
     66 N7          9.2030   -1.8370   -1.0920 n         1 MOL     -0.782888
     67 O11         8.1850   -0.6660   -2.7160 o         1 MOL     -0.575739
     68 H28         4.5360   -3.0180   -0.7380 hn        1 MOL      0.216913
     69 H29         7.1540   -2.1520    0.3800 h1        1 MOL     -0.059754
     70 H30         6.1340   -2.0350   -2.4950 hc        1 MOL      0.050478
     71 H31         7.1160   -3.3560   -1.7290 hc        1 MOL      0.050478
     72 H32         9.1280   -2.5890   -0.4290 hn        1 MOL      0.370948
     73 H33         9.9650   -1.1700   -1.1030 hn        1 MOL      0.370948
     74 N8          6.8680    0.4060   -0.1160 n         1 MOL     -0.321821
     75 C23         6.8150    1.8570   -0.3530 c3        1 MOL     -0.200530
     76 C24         5.8350    2.6120    0.5340 c         1 MOL      0.541012
     77 O12         5.7830    2.3530    1.7120 o         1 MOL     -0.468244
     78 H34         7.7910    0.0220    0.0330 hn        1 MOL      0.253789
     79 H35         6.5880    1.9930   -1.4070 h1        1 MOL      0.127653
     80 H36         7.7330    2.3810   -0.1060 h1        1 MOL      0.127653
     81 N9          5.0160    3.5360   -0.0320 n         1 MOL     -0.359165
     82 C25         3.8460    4.1020    0.6840 c3        1 MOL     -0.133837
     83 C26         2.9370    3.0000    1.2780 c         1 MOL      0.742119
     84 O13         2.7840    1.9020    0.7660 o         1 MOL     -0.713657
     85 C27         3.0500    4.9270   -0.3640 c3        1 MOL      0.026593
     86 C28         3.7640    6.1140   -1.0250 ca        1 MOL      0.017722
     87 C29         3.7240    7.3810   -0.4090 ca        1 MOL     -0.120940
     88 C30         4.4800    5.9590   -2.2620 ca        1 MOL     -0.120940
     89 C31         4.2800    8.5620   -1.0650 ca        1 MOL     -0.330045
     90 C32         5.1190    7.1120   -2.8940 ca        1 MOL     -0.330045
     91 C33         4.9390    8.4050   -2.2930 ca        1 MOL      0.410819
     92 O14         5.3630    9.4780   -3.0500 oh        1 MOL     -0.487180
     93 H37         5.1700    3.8460   -0.9800 hn        1 MOL      0.187304
     94 H38         4.1270    4.8540    1.4180 h1        1 MOL      0.095755
     95 H39         2.1030    5.2770    0.0480 hc        1 MOL      0.017336
     96 H40         2.6980    4.2900   -1.1740 hc        1 MOL      0.017336
     97 H41         3.2060    7.4470    0.5410 ha        1 MOL      0.128289
     98 H42         4.4910    4.9800   -2.7140 ha        1 MOL      0.128289
     99 H43         4.1370    9.5210   -0.5920 ha        1 MOL      0.187345
    100 H44         5.6570    7.0210   -3.8240 ha        1 MOL      0.187345
    101 H45         5.7610    9.1770   -3.8630 ho        1 MOL      0.358376
    102 N10         2.2030    3.3930    2.2750 n         1 MOL     -0.521848
    103 C34         1.4420    2.3840    3.1260 c3        1 MOL     -0.070588
    104 C35         0.2880    1.5730    2.4090 c         1 MOL      0.439936
    105 O15         0.5260    0.6910    1.6390 o         1 MOL     -0.363415
    106 C36         2.3790    1.4980    3.9110 c3        1 MOL      0.101200
    107 C37         1.6320    0.7020    5.0140 c3        1 MOL      0.132618
    108 C38         3.5180    2.1410    4.6970 c3        1 MOL     -0.322264
    109 C39         2.2960   -0.4750    5.6750 c3        1 MOL     -0.115349
    110 H46         2.4870    4.2130    2.8030 hn        1 MOL      0.312003
    111 H47         0.9270    3.1330    3.7270 h1        1 MOL      0.082893
    112 H48         2.8130    0.7850    3.2160 hc        1 MOL      0.136047
    113 H49         0.8030    0.1600    4.5440 hc        1 MOL     -0.048781
    114 H50         1.3290    1.3680    5.8130 hc        1 MOL     -0.048781
    115 H51         4.2220    1.3720    4.9860 hc        1 MOL      0.083277
    116 H52         4.1460    2.7570    4.0550 hc        1 MOL      0.083277
    117 H53         3.1670    2.6950    5.5680 hc        1 MOL      0.083277
    118 H54         1.5380   -1.1260    6.1060 hc        1 MOL      0.024479
    119 H55         2.7150   -1.0170    4.8210 hc        1 MOL      0.024479
    120 H56         3.1320   -0.2180    6.3220 hc        1 MOL      0.024479
    121 N11        -0.9740    1.9350    2.7440 n         1 MOL     -0.452020
    122 C40        -2.1830    1.2300    2.2860 c3        1 MOL      0.074777
    123 C41        -3.0460    1.8910    1.2030 c         1 MOL      0.569432
    124 O16        -3.6920    1.1770    0.4490 o         1 MOL     -0.603702
    125 C42        -2.9920    0.8720    3.5410 c3        1 MOL      0.144225
    126 O17        -3.1910    2.1070    4.2610 oh        1 MOL     -0.610185
    127 H57        -1.0210    2.6930    3.4080 hn        1 MOL      0.289102
    128 H58        -1.8430    0.3180    1.8030 h1        1 MOL      0.066382
    129 H59        -2.5110    0.1290    4.1820 h1        1 MOL      0.047797
    130 H60        -3.9240    0.3950    3.2270 h1        1 MOL      0.047797
    131 H61        -4.1400    2.2380    4.2250 ho        1 MOL      0.412391
    132 N12        -3.0380    3.1820    0.9800 n         1 MOL     -0.509073
    133 C43        -3.7570    3.8080   -0.2240 c3        1 MOL      0.204988
    134 C44        -3.0390    3.5370   -1.5230 c         1 MOL      0.759875
    135 O18        -1.7950    3.6680   -1.5300 o         1 MOL     -0.636918
    136 C45        -3.9860    5.3080   -0.0630 c3        1 MOL     -0.385521
    137 H62        -2.4460    3.7670    1.5520 hn        1 MOL      0.285175
    138 H63        -4.7720    3.4130   -0.1550 h1        1 MOL      0.084091
    139 H64        -4.7560    5.4160    0.6950 hc        1 MOL      0.114137
    140 H65        -3.1200    5.8750    0.3050 hc        1 MOL      0.114137
    141 H66        -4.2930    5.8050   -0.9830 hc        1 MOL      0.114137
    142 N13        -3.7980    3.2280   -2.5790 n         1 MOL     -0.766948
    143 C46        -5.0640    2.5270   -2.5290 c3        1 MOL      0.432065
    144 C47        -6.2920    3.5170   -2.3800 c         1 MOL      0.525916
    145 O19        -6.4640    4.5150   -3.0200 o         1 MOL     -0.563117
    146 C48        -5.2150    1.4790   -3.7070 c3        1 MOL     -0.305188
    147 H67        -3.2550    3.1240   -3.4280 hn        1 MOL      0.357944
    148 H68        -5.0570    1.9410   -1.6180 h1        1 MOL      0.001281
    149 H69        -5.9930    0.7340   -3.5900 hc        1 MOL      0.086381
    150 H70        -5.3410    1.9790   -4.6590 hc        1 MOL      0.086381
    151 H71        -4.3240    0.8490   -3.7880 hc        1 MOL      0.086381
    152 N14        -7.2660    3.2570   -1.5280 n         1 MOL     -0.571140
    153 C49        -7.4340    2.2720   -0.3660 c3        1 MOL     -0.440385
    154 C50        -7.7560    3.0220    0.9230 c         1 MOL      0.614171
    155 O20        -7.3980    2.4920    1.9310 o         1 MOL     -0.512308
    156 C51        -8.5970    1.3750   -0.8820 c3        1 MOL      0.075810
    157 C52        -8.8600    0.1350   -0.0700 c3        1 MOL     -0.223704
    158 C53        -9.8340   -0.8980   -0.6440 c         1 MOL      0.656053
    159 O21        -9.3980   -2.0240   -1.0530 o         1 MOL     -0.705329
    160 O22       -11.0550   -0.4940   -0.7180 o         1 MOL     -0.705329
    161 H72        -8.0360    3.9040   -1.5630 hn        1 MOL      0.352002
    162 H73        -6.6070    1.5860   -0.2330 h1        1 MOL      0.252022
    163 H74        -8.3420    1.0170   -1.8830 hc        1 MOL      0.047582
    164 H75        -9.5390    1.9260   -1.0040 hc        1 MOL      0.047582
    165 H76        -9.2800    0.4990    0.8650 hc        1 MOL      0.045336
    166 H77        -7.9570   -0.3840    0.2780 hc        1 MOL      0.045336
    167 N15        -8.4230    4.1900    0.9050 n         1 MOL     -0.320136
    168 C54        -8.5820    4.9810    2.0910 c3        1 MOL     -0.049781
    169 H78        -9.6070    4.8910    2.4530 h1        1 MOL      0.058626
    170 H79        -7.8940    4.6280    2.8590 h1        1 MOL      0.058626
    171 H80        -8.3680    6.0260    1.8630 h1        1 MOL      0.058626
    172 H81        -8.7330    4.5370    0.0080 hn        1 MOL      0.264400
    173 Ca1         1.9600   -0.0960   -0.6740 Ca        1 MOL      1.743628
    174 O23        -0.7950   -0.6560   -1.1710 oh        1 MOL     -0.808404
    175 H82        -1.0970   -0.9180   -2.0460 ho        1 MOL      0.397481
    176 H83        -1.4010   -1.0810   -0.5710 ho        1 MOL      0.397481
    177 O24         0.5460    2.1110   -1.6580 oh        1 MOL     -0.808404
    178 H84        -0.3700    2.3580   -1.6440 ho        1 MOL      0.397481
    179 H85         1.0110    2.8870   -1.9620 ho        1 MOL      0.397481
    180 O25         3.0620    0.9130   -3.0640 oh        1 MOL     -0.808404
    181 H86         3.8200    1.4870   -3.1760 ho        1 MOL      0.397481
    182 H87         2.4900    1.1390   -3.7910 ho        1 MOL      0.397481
@<TRIPOS>BOND
     1    1    2 1   
     2    1    4 1   
     3    1    5 1   
     4    1    6 1   
     5    2    3 2   
     6    2    7 1   
     7    7    8 1   
     8    7   15 1   
     9    8    9 1   
    10    8   11 1   
    11    8   16 1   
    12    9   10 2   
    13    9   19 1   
    14   11   12 1   
    15   11   17 1   
    16   11   18 1   
    17   12   13 1   
    18   12   14 1   
    19   19   20 1   
    20   19   28 1   
    21   20   21 1   
    22   20   23 1   
    23   20   29 1   
    24   21   22 2   
    25   21   41 1   
    26   23   24 1   
    27   23   30 1   
    28   23   31 1   
    29   24   25 1   
    30   24   32 1   
    31   24   33 1   
    32   25   26 1   
    33   25   34 1   
    34   25   35 1   
    35   26   27 1   
    36   26   36 1   
    37   26   37 1   
    38   27   38 1   
    39   27   39 1   
    40   27   40 1   
    41   41   42 1   
    42   41   49 1   
    43   42   43 1   
    44   42   45 1   
    45   42   50 1   
    46   43   44 2   
    47   43   53 1   
    48   45   46 1   
    49   45   51 1   
    50   45   52 1   
    51   46   47 1   
    52   46   48 1   
    53   53   54 1   
    54   53   57 1   
    55   54   55 1   
    56   54   58 1   
    57   54   59 1   
    58   55   56 2   
    59   55   60 1   
    60   60   61 1   
    61   60   68 1   
    62   61   62 1   
    63   61   64 1   
    64   61   69 1   
    65   62   63 2   
    66   62   74 1   
    67   64   65 1   
    68   64   70 1   
    69   64   71 1   
    70   65   66 1   
    71   65   67 2   
    72   66   72 1   
    73   66   73 1   
    74   74   75 1   
    75   74   78 1   
    76   75   76 1   
    77   75   79 1   
    78   75   80 1   
    79   76   77 2   
    80   76   81 1   
    81   81   82 1   
    82   81   93 1   
    83   82   83 1   
    84   82   85 1   
    85   82   94 1   
    86   83   84 2   
    87   83  102 1   
    88   85   86 1   
    89   85   95 1   
    90   85   96 1   
    91   86   87 ar  
    92   86   88 ar  
    93   87   89 ar  
    94   87   97 1   
    95   88   90 ar  
    96   88   98 1   
    97   89   91 ar  
    98   89   99 1   
    99   90   91 ar  
   100   90  100 1   
   101   91   92 1   
   102   92  101 1   
   103  102  103 1   
   104  102  110 1   
   105  103  104 1   
   106  103  106 1   
   107  103  111 1   
   108  104  105 2   
   109  104  121 1   
   110  106  107 1   
   111  106  108 1   
   112  106  112 1   
   113  107  109 1   
   114  107  113 1   
   115  107  114 1   
   116  108  115 1   
   117  108  116 1   
   118  108  117 1   
   119  109  118 1   
   120  109  119 1   
   121  109  120 1   
   122  121  122 1   
   123  121  127 1   
   124  122  123 1   
   125  122  125 1   
   126  122  128 1   
   127  123  124 2   
   128  123  132 1   
   129  125  126 1   
   130  125  129 1   
   131  125  130 1   
   132  126  131 1   
   133  132  133 1   
   134  132  137 1   
   135  133  134 1   
   136  133  136 1   
   137  133  138 1   
   138  134  135 2   
   139  134  142 1   
   140  136  139 1   
   141  136  140 1   
   142  136  141 1   
   143  142  143 1   
   144  142  147 1   
   145  143  144 1   
   146  143  146 1   
   147  143  148 1   
   148  144  145 2   
   149  144  152 1   
   150  146  149 1   
   151  146  150 1   
   152  146  151 1   
   153  152  153 1   
   154  152  161 1   
   155  153  154 1   
   156  153  156 1   
   157  153  162 1   
   158  154  155 2   
   159  154  167 1   
   160  156  157 1   
   161  156  163 1   
   162  156  164 1   
   163  157  158 1   
   164  157  165 1   
   165  157  166 1   
   166  158  159 1   
   167  158  160 1   
   168  167  168 1   
   169  167  172 1   
   170  168  169 1   
   171  168  170 1   
   172  168  171 1   
   173  174  175 1   
   174  174  176 1   
   175  177  178 1   
   176  177  179 1   
   177  180  181 1   
   178  180  182 1   
@<TRIPOS>SUBSTRUCTURE
     1 MOL         1 TEMP              0 ****  ****    0 ROOT
