@<TRIPOS>MOLECULE
MOL
  181   177     1     0     0
SMALL
resp


@<TRIPOS>ATOM
      1 C1          6.1460   -5.6340    4.9600 c3        1 MOL     -0.288052
      2 C2          5.6130   -4.4740    4.1080 c         1 MOL      0.668886
      3 O1          4.8560   -3.5910    4.6320 o         1 MOL     -0.575389
      4 H1          7.2350   -5.6400    4.9260 hc        1 MOL      0.063334
      5 H2          5.8160   -5.5100    5.9910 hc        1 MOL      0.063334
      6 H3          5.7660   -6.5780    4.5680 hc        1 MOL      0.063334
      7 N1          6.0350   -4.3920    2.8640 n         1 MOL     -0.525967
      8 C3          7.1330   -5.0090    2.1530 c3        1 MOL      0.002840
      9 C4          6.6060   -5.5960    0.7700 c         1 MOL      0.536526
     10 O2          5.4390   -5.9710    0.6940 o         1 MOL     -0.458396
     11 C5          8.2790   -3.9920    2.0660 c3        1 MOL     -0.119614
     12 C6          7.8580   -2.6920    1.4430 c         1 MOL      0.512808
     13 O3          7.6640   -2.5140    0.1800 o         1 MOL     -0.607040
     14 O4          7.7400   -1.6510    2.1080 o         1 MOL     -0.607040
     15 H4          5.5100   -3.6700    2.3870 hn        1 MOL      0.405389
     16 H5          7.4570   -5.8980    2.7060 h1        1 MOL      0.067212
     17 H6          9.1250   -4.3950    1.5160 hc        1 MOL      0.038066
     18 H7          8.5700   -3.7790    3.0890 hc        1 MOL      0.038066
     19 N2          7.3800   -5.5770   -0.2600 n         1 MOL     -0.647417
     20 C7          6.8430   -5.7470   -1.6300 c3        1 MOL      0.492797
     21 C8          5.7250   -4.8240   -2.1790 c         1 MOL      0.305787
     22 O5          5.0100   -5.2030   -3.1050 o         1 MOL     -0.543931
     23 C9          6.6650   -7.2240   -1.9700 c3        1 MOL     -0.270901
     24 H8          8.3650   -5.4210   -0.1090 hn        1 MOL      0.342279
     25 H9          7.7200   -5.5890   -2.2590 h1        1 MOL     -0.042814
     26 H10         5.9710   -7.5140   -1.1870 hc        1 MOL      0.054177
     27 H11         6.2590   -7.3390   -2.9720 hc        1 MOL      0.054177
     28 H12         7.5770   -7.8380   -2.0140 hc        1 MOL      0.054177
     29 N3          5.6980   -3.5950   -1.7530 n         1 MOL      0.129788
     30 C10         4.7530   -2.5630   -2.1860 c3        1 MOL      0.040345
     31 C11         5.4960   -1.3100   -2.7160 c         1 MOL      0.156127
     32 O6          6.6970   -1.1780   -2.4190 o         1 MOL     -0.412987
     33 C12         3.7240   -2.1880   -1.0130 c3        1 MOL      0.049561
     34 C13         4.4700   -1.8120    0.3060 c         1 MOL      0.824762
     35 O7          4.8740   -0.5830    0.3550 o         1 MOL     -0.718604
     36 O8          4.4610   -2.5780    1.2250 o         1 MOL     -0.718604
     37 H13         6.2020   -3.2500   -0.9560 hn        1 MOL     -0.284393
     38 H14         4.1290   -3.0130   -2.9620 h1        1 MOL      0.033102
     39 H15         3.1430   -3.0780   -0.8020 hc        1 MOL     -0.011307
     40 H16         3.0510   -1.4200   -1.3900 hc        1 MOL     -0.011307
     41 N4          4.8330   -0.4140   -3.5180 n         1 MOL     -0.070998
     42 C14         5.3780    0.8800   -3.8530 c3        1 MOL     -0.511941
     43 C15         5.3290    1.9130   -2.6810 c         1 MOL      0.813391
     44 O9          5.5000    1.5550   -1.5080 o         1 MOL     -0.635785
     45 H17         3.9190   -0.6710   -3.8670 hn        1 MOL      0.251173
     46 H18         4.7710    1.2980   -4.6670 h1        1 MOL      0.175564
     47 H19         6.4060    0.7520   -4.2100 h1        1 MOL      0.175564
     48 N5          4.9560    3.1840   -2.9850 n         1 MOL     -0.577543
     49 C16         5.0690    4.2870   -2.0720 c3        1 MOL      0.064320
     50 C17         3.8380    4.3730   -1.1290 c         1 MOL      0.731530
     51 O10         2.7340    4.1430   -1.5950 o         1 MOL     -0.502929
     52 C18         5.2830    5.6390   -2.8430 c3        1 MOL     -0.372591
     53 C19         6.7070    5.7440   -3.2820 c         1 MOL      0.761579
     54 N6          7.5570    6.1340   -2.3680 n         1 MOL     -0.768481
     55 O11         7.0410    5.3990   -4.3500 o         1 MOL     -0.580930
     56 H20         4.6640    3.3700   -3.9340 hn        1 MOL      0.326408
     57 H21         5.9270    4.1240   -1.4290 h1        1 MOL     -0.008093
     58 H22         4.9810    6.4490   -2.1870 hc        1 MOL      0.125756
     59 H23         4.5290    5.6830   -3.6260 hc        1 MOL      0.125756
     60 H24         7.1900    6.5060   -1.5040 hn        1 MOL      0.334309
     61 H25         8.5480    6.0380   -2.5600 hn        1 MOL      0.334309
     62 N7          3.9820    4.6460    0.1880 n         1 MOL     -0.584374
     63 C20         2.8610    4.9490    1.0760 c3        1 MOL      0.081683
     64 C21         2.0810    6.2150    0.6780 c         1 MOL      0.448235
     65 O12         2.4740    7.0590   -0.1200 o         1 MOL     -0.536367
     66 H26         4.9250    4.8960    0.4620 hn        1 MOL      0.298282
     67 H27         3.2210    5.1660    2.0890 h1        1 MOL      0.076659
     68 H28         2.2010    4.0990    1.1630 h1        1 MOL      0.076659
     69 N8          0.8790    6.4550    1.2620 n         1 MOL     -0.408409
     70 C22         0.0930    5.5360    2.0890 c3        1 MOL      0.077963
     71 C23        -0.7710    4.5390    1.2400 c         1 MOL      0.520987
     72 O13        -1.3280    4.8700    0.1720 o         1 MOL     -0.545378
     73 C24        -0.8620    6.3750    2.9940 c3        1 MOL      0.240996
     74 C25        -1.5290    5.4630    4.0900 c3        1 MOL     -0.253610
     75 O14        -0.0500    7.2550    3.7920 oh        1 MOL     -0.649761
     76 H29         0.3810    7.3130    1.0400 hn        1 MOL      0.292619
     77 H30         0.7920    4.9440    2.6770 h1        1 MOL      0.047038
     78 H31        -1.6590    6.8290    2.4110 h1        1 MOL      0.038870
     79 H32        -0.7320    7.6530    4.3450 ho        1 MOL      0.396453
     80 H33        -0.8520    4.7730    4.5880 hc        1 MOL      0.077150
     81 H34        -1.9540    6.1810    4.8050 hc        1 MOL      0.077150
     82 H35        -2.3170    4.8970    3.6060 hc        1 MOL      0.077150
     83 N9         -0.8750    3.2760    1.7170 n         1 MOL     -0.413725
     84 C26        -1.7310    2.2380    1.1220 c3        1 MOL      0.085157
     85 C27        -2.7730    1.7380    2.1500 c         1 MOL      0.386246
     86 O15        -2.5100    1.6800    3.3700 o         1 MOL     -0.530391
     87 C28        -0.8750    1.0090    0.6510 c3        1 MOL      0.378124
     88 C29         0.2090    0.5110    1.6170 c3        1 MOL      0.016345
     89 C30        -0.2440    1.5360   -0.6660 c3        1 MOL     -0.223862
     90 C31         0.5530   -0.9630    1.3780 c3        1 MOL     -0.460244
     91 H36        -0.5310    2.9890    2.6240 hn        1 MOL      0.186210
     92 H37        -2.2170    2.6150    0.2190 h1        1 MOL      0.117441
     93 H38        -1.5690    0.1990    0.4310 hc        1 MOL     -0.054626
     94 H39        -0.1710    0.5770    2.6380 hc        1 MOL      0.002329
     95 H40         1.1160    1.0800    1.4640 hc        1 MOL      0.002329
     96 H41        -1.0540    1.6950   -1.3680 hc        1 MOL      0.027729
     97 H42         0.3910    2.4050   -0.4930 hc        1 MOL      0.027729
     98 H43         0.4820    0.7850   -0.9860 hc        1 MOL      0.027729
     99 H44         1.0720   -1.0750    0.4280 hc        1 MOL      0.127233
    100 H45         1.2600   -1.1990    2.1760 hc        1 MOL      0.127233
    101 H46        -0.3400   -1.5470    1.5630 hc        1 MOL      0.127233
    102 N10        -4.0560    1.4440    1.7830 n         1 MOL     -0.402566
    103 C32        -4.8050    1.8600    0.6260 c3        1 MOL      0.154588
    104 C33        -6.1100    0.9950    0.4970 c         1 MOL      0.355445
    105 O16        -6.5800    0.5370    1.5560 o         1 MOL     -0.473588
    106 C34        -5.1840    3.3510    0.7510 c3        1 MOL     -0.038099
    107 C35        -6.0400    3.6980    1.9470 c         1 MOL      0.696233
    108 O17        -5.5260    3.9360    3.0610 o         1 MOL     -0.670609
    109 O18        -7.2920    3.8740    1.7010 o         1 MOL     -0.670609
    110 H47        -4.5620    0.9890    2.5340 hn        1 MOL      0.301675
    111 H48        -4.1940    1.6860   -0.2640 h1        1 MOL     -0.012226
    112 H49        -5.7660    3.6050   -0.1400 hc        1 MOL     -0.020373
    113 H50        -4.3230    4.0200    0.7400 hc        1 MOL     -0.020373
    114 N11        -6.7520    0.7840   -0.6900 n         1 MOL     -0.380852
    115 C36        -8.1100    0.2360   -0.9040 c3        1 MOL      0.341894
    116 C37        -8.0810   -0.7270   -2.1130 c         1 MOL     -0.016118
    117 O19        -7.8030   -0.3010   -3.2280 o         1 MOL     -0.465847
    118 C38        -9.0910    1.4010   -0.9920 c3        1 MOL     -0.108554
    119 C39       -10.6020    1.0710   -1.0890 ca        1 MOL      0.103446
    120 C40       -11.1980    0.7520   -2.3290 ca        1 MOL     -0.153188
    121 C41       -11.3530    0.9320    0.1030 ca        1 MOL     -0.153188
    122 C42       -12.5990    0.5620   -2.4370 ca        1 MOL     -0.134061
    123 C43       -12.6930    0.5910    0.0460 ca        1 MOL     -0.134061
    124 C44       -13.3470    0.4600   -1.2440 ca        1 MOL     -0.148272
    125 H51        -6.2120    1.0660   -1.4900 hn        1 MOL      0.300482
    126 H52        -8.3320   -0.3440   -0.0110 h1        1 MOL      0.001868
    127 H53        -8.9250    2.0970   -1.8050 hc        1 MOL      0.045618
    128 H54        -8.7920    2.0510   -0.1740 hc        1 MOL      0.045618
    129 H55       -10.6010    0.6880   -3.2210 ha        1 MOL      0.136059
    130 H56       -10.9080    1.0240    1.0920 ha        1 MOL      0.136059
    131 H57       -13.0690    0.3120   -3.3800 ha        1 MOL      0.104094
    132 H58       -13.2660    0.6040    0.9600 ha        1 MOL      0.104094
    133 H59       -14.3720    0.1190   -1.3140 ha        1 MOL      0.091212
    134 N12        -8.6040   -1.9320   -2.0340 n         1 MOL      0.214269
    135 C45        -9.1970   -2.5020   -0.8550 c3        1 MOL     -0.025750
    136 C46        -8.2160   -2.8460    0.2730 c         1 MOL      0.492054
    137 O20        -8.5800   -2.6990    1.4630 o         1 MOL     -0.587853
    138 C47        -9.9740   -3.6670   -1.3120 c3        1 MOL     -0.067990
    139 C48        -9.2990   -4.1670   -2.6360 c3        1 MOL     -0.169049
    140 C49        -8.6830   -2.8580   -3.1480 c3        1 MOL     -0.151774
    141 H60        -9.8910   -1.7300   -0.5190 h1        1 MOL      0.046816
    142 H61       -10.2330   -4.4180   -0.5810 hc        1 MOL      0.029328
    143 H62       -10.9530   -3.2490   -1.5650 hc        1 MOL      0.029328
    144 H63        -8.4560   -4.8140   -2.4100 hc        1 MOL      0.068770
    145 H64        -9.9480   -4.5760   -3.3990 hc        1 MOL      0.068770
    146 H65        -7.6590   -3.0930   -3.4770 h1        1 MOL      0.088281
    147 H66        -9.3390   -2.4510   -3.9100 h1        1 MOL      0.088281
    148 N13        -6.9420   -3.0530   -0.1200 n         1 MOL     -0.104081
    149 C50        -5.9370   -3.5320    0.7820 c3        1 MOL     -0.009478
    150 C51        -6.2290   -5.0200    1.1370 c         1 MOL      0.402099
    151 O21        -6.1720   -5.8950    0.3180 o         1 MOL     -0.541112
    152 C52        -4.5710   -3.4750   -0.0020 c3        1 MOL      0.074347
    153 C53        -4.2270   -2.0210   -0.4080 c3        1 MOL     -0.109168
    154 C54        -4.7380   -1.6370   -1.8130 c         1 MOL      0.659242
    155 O22        -5.4620   -2.4010   -2.4930 o         1 MOL     -0.649982
    156 O23        -4.3790   -0.5300   -2.2150 o         1 MOL     -0.649982
    157 H67        -6.7490   -2.8380   -1.0850 hn        1 MOL      0.148897
    158 H68        -5.8270   -2.9520    1.6960 h1        1 MOL      0.091511
    159 H69        -4.6640   -4.1550   -0.8400 hc        1 MOL     -0.011605
    160 H70        -3.8040   -3.8820    0.6670 hc        1 MOL     -0.011605
    161 H71        -3.1770   -1.7750   -0.2590 hc        1 MOL     -0.026797
    162 H72        -4.7380   -1.3840    0.3230 hc        1 MOL     -0.026797
    163 N14        -6.5620   -5.3520    2.3930 n         1 MOL     -0.327291
    164 C55        -7.0710   -4.5520    3.4950 c3        1 MOL     -0.159058
    165 H73        -6.6790   -3.5380    3.4180 h1        1 MOL      0.079449
    166 H74        -8.1600   -4.5240    3.4520 h1        1 MOL      0.079449
    167 H75        -6.7560   -4.9920    4.4400 h1        1 MOL      0.079449
    168 H76        -6.4000   -6.3100    2.6590 hn        1 MOL      0.254281
    169 Ca1         7.4150    0.0640    0.0490 Ca        1 MOL      1.786727
    170 O24         9.8450    0.2360    1.0050 oh        1 MOL     -0.850055
    171 H77        10.5090    0.9030    0.8170 ho        1 MOL      0.397843
    172 H78        10.2340   -0.2960    1.7100 ho        1 MOL      0.397843
    173 O25         8.2450    2.5110   -0.3670 oh        1 MOL     -0.850055
    174 H79         8.6400    3.1770    0.1950 ho        1 MOL      0.397843
    175 H80         8.5000    2.7540   -1.2540 ho        1 MOL      0.397843
    176 O26         7.1550    1.2960    2.5570 oh        1 MOL     -0.850055
    177 H81         7.8620    1.6290    3.1100 ho        1 MOL      0.397843
    178 H82         6.3640    1.4460    3.0650 ho        1 MOL      0.397843
    179 O27         9.1470    0.0520   -1.8580 oh        1 MOL     -0.850055
    180 H83        10.0360    0.0500   -1.4780 ho        1 MOL      0.397843
    181 H84         9.2770    0.2580   -2.7770 ho        1 MOL      0.397843
@<TRIPOS>BOND
     1    1    2 1   
     2    1    4 1   
     3    1    5 1   
     4    1    6 1   
     5    2    3 2   
     6    2    7 1   
     7    7    8 1   
     8    7   15 1   
     9    8    9 1   
    10    8   11 1   
    11    8   16 1   
    12    9   10 2   
    13    9   19 1   
    14   11   12 1   
    15   11   17 1   
    16   11   18 1   
    17   12   13 1   
    18   12   14 1   
    19   19   20 1   
    20   19   24 1   
    21   20   21 1   
    22   20   23 1   
    23   20   25 1   
    24   21   22 2   
    25   21   29 1   
    26   23   26 1   
    27   23   27 1   
    28   23   28 1   
    29   29   30 1   
    30   29   37 1   
    31   30   31 1   
    32   30   33 1   
    33   30   38 1   
    34   31   32 2   
    35   31   41 1   
    36   33   34 1   
    37   33   39 1   
    38   33   40 1   
    39   34   35 1   
    40   34   36 1   
    41   41   42 1   
    42   41   45 1   
    43   42   43 1   
    44   42   46 1   
    45   42   47 1   
    46   43   44 2   
    47   43   48 1   
    48   48   49 1   
    49   48   56 1   
    50   49   50 1   
    51   49   52 1   
    52   49   57 1   
    53   50   51 2   
    54   50   62 1   
    55   52   53 1   
    56   52   58 1   
    57   52   59 1   
    58   53   54 1   
    59   53   55 2   
    60   54   60 1   
    61   54   61 1   
    62   62   63 1   
    63   62   66 1   
    64   63   64 1   
    65   63   67 1   
    66   63   68 1   
    67   64   65 2   
    68   64   69 1   
    69   69   70 1   
    70   69   76 1   
    71   70   71 1   
    72   70   73 1   
    73   70   77 1   
    74   71   72 2   
    75   71   83 1   
    76   73   74 1   
    77   73   75 1   
    78   73   78 1   
    79   74   80 1   
    80   74   81 1   
    81   74   82 1   
    82   75   79 1   
    83   83   84 1   
    84   83   91 1   
    85   84   85 1   
    86   84   87 1   
    87   84   92 1   
    88   85   86 2   
    89   85  102 1   
    90   87   88 1   
    91   87   89 1   
    92   87   93 1   
    93   88   90 1   
    94   88   94 1   
    95   88   95 1   
    96   89   96 1   
    97   89   97 1   
    98   89   98 1   
    99   90   99 1   
   100   90  100 1   
   101   90  101 1   
   102  102  103 1   
   103  102  110 1   
   104  103  104 1   
   105  103  106 1   
   106  103  111 1   
   107  104  105 2   
   108  104  114 1   
   109  106  107 1   
   110  106  112 1   
   111  106  113 1   
   112  107  108 1   
   113  107  109 1   
   114  114  115 1   
   115  114  125 1   
   116  115  116 1   
   117  115  118 1   
   118  115  126 1   
   119  116  117 2   
   120  116  134 1   
   121  118  119 1   
   122  118  127 1   
   123  118  128 1   
   124  119  120 ar  
   125  119  121 ar  
   126  120  122 ar  
   127  120  129 1   
   128  121  123 ar  
   129  121  130 1   
   130  122  124 ar  
   131  122  131 1   
   132  123  124 ar  
   133  123  132 1   
   134  124  133 1   
   135  134  135 1   
   136  134  140 1   
   137  135  136 1   
   138  135  138 1   
   139  135  141 1   
   140  136  137 2   
   141  136  148 1   
   142  138  139 1   
   143  138  142 1   
   144  138  143 1   
   145  139  140 1   
   146  139  144 1   
   147  139  145 1   
   148  140  146 1   
   149  140  147 1   
   150  148  149 1   
   151  148  157 1   
   152  149  150 1   
   153  149  152 1   
   154  149  158 1   
   155  150  151 2   
   156  150  163 1   
   157  152  153 1   
   158  152  159 1   
   159  152  160 1   
   160  153  154 1   
   161  153  161 1   
   162  153  162 1   
   163  154  155 1   
   164  154  156 1   
   165  163  164 1   
   166  163  168 1   
   167  164  165 1   
   168  164  166 1   
   169  164  167 1   
   170  170  171 1   
   171  170  172 1   
   172  173  174 1   
   173  173  175 1   
   174  176  177 1   
   175  176  178 1   
   176  179  180 1   
   177  179  181 1   
@<TRIPOS>SUBSTRUCTURE
     1 MOL         1 TEMP              0 ****  ****    0 ROOT
