@<TRIPOS>MOLECULE
MOL
  192   187     1     0     0
SMALL
resp


@<TRIPOS>ATOM
      1 C1          9.7040    0.7100    1.9360 c3        1 MOL     -0.529562
      2 C2          8.4900    0.4120    1.1480 c         1 MOL      0.740481
      3 O1          7.3740    0.1930    1.7250 o         1 MOL     -0.645277
      4 H1          9.8890   -0.1030    2.6390 hc        1 MOL      0.133925
      5 H2         10.5580    0.8100    1.2650 hc        1 MOL      0.133925
      6 H3          9.5610    1.6400    2.4860 hc        1 MOL      0.133925
      7 N1          8.6760    0.4350   -0.1400 n         1 MOL     -0.489983
      8 C3          7.6340    0.3780   -1.2050 c3        1 MOL     -0.006577
      9 C4          7.1130   -1.0440   -1.4850 c         1 MOL      0.527660
     10 O2          6.9720   -1.4680   -2.6520 o         1 MOL     -0.432424
     11 C5          8.2720    1.1160   -2.3730 c3        1 MOL     -0.235214
     12 C6          9.5230    0.4220   -2.9460 c         1 MOL      0.753330
     13 O3          9.9690   -0.6600   -2.6020 o         1 MOL     -0.672572
     14 O4         10.0160    1.0940   -3.8850 o         1 MOL     -0.672572
     15 H4          9.6420    0.5270   -0.4420 hn        1 MOL      0.280583
     16 H5          6.7880    1.0420   -0.9940 h1        1 MOL      0.131934
     17 H6          8.4890    2.1580   -2.1400 hc        1 MOL      0.073247
     18 H7          7.5390    1.0910   -3.1780 hc        1 MOL      0.073247
     19 N2          6.6740   -1.7370   -0.3940 n         1 MOL     -0.452247
     20 C7          6.3070   -3.0960   -0.3890 c3        1 MOL      0.058900
     21 C8          4.7550   -3.3310   -0.8810 c         1 MOL      0.389006
     22 O5          4.3800   -4.1090   -1.7280 o         1 MOL     -0.506107
     23 C9          6.5690   -3.8030    1.0060 c3        1 MOL      0.234288
     24 C10         8.0570   -3.6080    1.3130 c3        1 MOL     -0.398862
     25 C11         8.5910   -4.5690    2.2890 c3        1 MOL      0.348672
     26 C12         9.9970   -4.2570    2.5850 c3        1 MOL     -0.158746
     27 N3         10.3850   -4.7410    3.9230 n4        1 MOL     -0.302089
     28 H8          6.6870   -1.1500    0.4220 hn        1 MOL      0.168507
     29 H9          6.8790   -3.6760   -1.1070 h1        1 MOL      0.088570
     30 H10         6.3400   -4.8640    0.8940 hc        1 MOL     -0.035405
     31 H11         5.9710   -3.4550    1.8410 hc        1 MOL     -0.035405
     32 H12         8.2290   -2.6020    1.6960 hc        1 MOL      0.108642
     33 H13         8.6880   -3.8820    0.4670 hc        1 MOL      0.108642
     34 H14         8.3840   -5.5620    1.8880 hc        1 MOL     -0.047837
     35 H15         8.0350   -4.5270    3.2300 hc        1 MOL     -0.047837
     36 H16         9.9900   -3.1700    2.5980 hx        1 MOL      0.123490
     37 H17        10.5270   -4.7080    1.7400 hx        1 MOL      0.123490
     38 H18        11.3320   -4.4820    4.1240 hn        1 MOL      0.283333
     39 H19         9.8200   -4.2000    4.5660 hn        1 MOL      0.283333
     40 H20        10.2480   -5.7320    4.0470 hn        1 MOL      0.283333
     41 N4          3.7910   -2.6170   -0.3320 n         1 MOL     -0.251895
     42 C13         3.7810   -1.5400    0.6920 c3        1 MOL     -0.133258
     43 C14         3.8520   -0.1860   -0.0080 c         1 MOL      0.333575
     44 O6          3.6630   -0.0080   -1.2350 o         1 MOL     -0.454070
     45 C15         2.5830   -1.6100    1.6160 c3        1 MOL     -0.345503
     46 C16         1.2880   -1.9820    0.9540 c         1 MOL      0.674317
     47 O7          0.7550   -1.1630    0.1310 o         1 MOL     -0.619506
     48 O8          0.7790   -3.0160    1.3530 o         1 MOL     -0.619506
     49 H21         2.9860   -2.5890   -0.9470 hn        1 MOL      0.292748
     50 H22         4.7110   -1.6250    1.2520 h1        1 MOL      0.199802
     51 H23         2.4090   -0.7050    2.1870 hc        1 MOL      0.107541
     52 H24         2.8120   -2.3130    2.4230 hc        1 MOL      0.107541
     53 N5          3.8230    0.8350    0.8520 n         1 MOL     -0.321809
     54 C17         3.8800    2.2940    0.3760 c3        1 MOL     -0.152959
     55 C18         2.6600    2.6550   -0.4420 c         1 MOL      0.456481
     56 O9          1.6050    2.0590   -0.4300 o         1 MOL     -0.395491
     57 H25         3.9870    0.6250    1.8210 hn        1 MOL      0.285974
     58 H26         4.7770    2.4660   -0.2290 h1        1 MOL      0.118002
     59 H27         4.0320    2.8870    1.2820 h1        1 MOL      0.118002
     60 N6          2.7870    3.7690   -1.1640 n         1 MOL     -0.512570
     61 C19         1.7080    4.2510   -2.0860 c3        1 MOL      0.154058
     62 C20         1.9250    5.7590   -2.3660 c         1 MOL      0.407525
     63 O10         3.0720    6.2230   -2.5630 o         1 MOL     -0.518097
     64 C21         1.5180    3.3960   -3.4110 c3        1 MOL     -0.093517
     65 C22         0.0020    3.1770   -3.6690 c         1 MOL      0.573779
     66 O11        -0.4810    3.5990   -4.7610 o         1 MOL     -0.657896
     67 O12        -0.6320    2.4580   -2.8210 o         1 MOL     -0.657896
     68 H28         3.6930    4.2020   -1.2720 hn        1 MOL      0.297561
     69 H29         0.7890    4.2460   -1.5140 h1        1 MOL      0.166089
     70 H30         1.8660    2.3710   -3.2660 hc        1 MOL      0.043974
     71 H31         2.1060    3.8030   -4.2380 hc        1 MOL      0.043974
     72 N7          0.8370    6.5790   -2.4890 n         1 MOL     -0.428655
     73 C23        -0.5480    6.2940   -2.2460 c3        1 MOL      0.003707
     74 C24        -0.8850    6.2720   -0.7650 c         1 MOL      0.535127
     75 O13        -0.1440    6.7700    0.1000 o         1 MOL     -0.543492
     76 H32         1.0430    7.5600   -2.6490 hn        1 MOL      0.311914
     77 H33        -0.7250    5.3180   -2.7090 h1        1 MOL      0.064067
     78 H34        -1.0640    7.1090   -2.7370 h1        1 MOL      0.064067
     79 N8         -1.8110    5.4590   -0.4630 n         1 MOL     -0.585616
     80 C25        -2.1950    4.9580    0.9340 c3        1 MOL      0.153212
     81 C26        -1.4580    3.6960    1.3260 c         1 MOL      0.829273
     82 O14        -0.8390    3.0430    0.4580 o         1 MOL     -0.677870
     83 C27        -3.7500    4.8520    1.1570 c3        1 MOL      0.452946
     84 C28        -4.3870    3.6050    0.5760 c3        1 MOL     -0.381753
     85 O15        -4.4550    6.0030    0.7300 oh        1 MOL     -0.616848
     86 H35        -2.4720    5.2200   -1.1900 hn        1 MOL      0.306741
     87 H36        -1.8230    5.7530    1.5880 h1        1 MOL      0.000346
     88 H37        -3.8030    4.8000    2.2490 h1        1 MOL     -0.101263
     89 H38        -4.1580    6.6780    1.3350 ho        1 MOL      0.387362
     90 H39        -5.3780    3.5470    1.0340 hc        1 MOL      0.107033
     91 H40        -4.4240    3.7650   -0.5000 hc        1 MOL      0.107033
     92 H41        -3.8000    2.7000    0.7460 hc        1 MOL      0.107033
     93 N9         -1.4290    3.3540    2.6380 n         1 MOL     -0.840139
     94 C29        -0.8160    2.1230    3.1860 c3        1 MOL      0.250515
     95 C30        -1.5010    0.8480    2.7350 c         1 MOL      0.468493
     96 O16        -1.6590    0.6390    1.5190 o         1 MOL     -0.523721
     97 C31         0.7350    1.9740    3.1900 c3        1 MOL      0.561770
     98 C32         1.4820    3.2520    3.4210 c3        1 MOL     -0.211432
     99 C33         1.1150    0.9450    4.2500 c3        1 MOL     -0.280213
    100 C34         1.1780    4.0200    4.7610 c3        1 MOL     -0.328995
    101 H42        -1.9150    3.8350    3.3750 hn        1 MOL      0.354607
    102 H43        -1.0810    2.2680    4.2280 h1        1 MOL     -0.007909
    103 H44         0.9730    1.6380    2.1790 hc        1 MOL     -0.275792
    104 H45         1.4130    3.8890    2.5350 hc        1 MOL      0.101530
    105 H46         2.5420    3.0300    3.4890 hc        1 MOL      0.101530
    106 H47         0.7480    1.3400    5.1940 hc        1 MOL      0.049767
    107 H48         0.7550   -0.0360    3.9250 hc        1 MOL      0.049767
    108 H49         2.1960    0.8440    4.2740 hc        1 MOL      0.049767
    109 H50         1.8520    4.8780    4.7320 hc        1 MOL      0.085494
    110 H51         0.1290    4.3240    4.7000 hc        1 MOL      0.085494
    111 H52         1.3030    3.3630    5.6150 hc        1 MOL      0.085494
    112 N10        -1.8140   -0.0720    3.6110 n         1 MOL     -0.459067
    113 C35        -2.2170   -1.4380    3.2090 c3        1 MOL     -0.025474
    114 C36        -3.7200   -1.5870    3.0200 c         1 MOL      0.621782
    115 O17        -4.3110   -2.7000    3.0850 o         1 MOL     -0.570351
    116 C37        -1.6420   -2.4410    4.0990 c3        1 MOL      0.495954
    117 C38        -1.9080   -2.3150    5.5820 c3        1 MOL     -0.296743
    118 O18        -0.2530   -2.4850    3.7780 oh        1 MOL     -0.656213
    119 H53        -1.9650    0.1640    4.5850 hn        1 MOL      0.246601
    120 H54        -1.8650   -1.7890    2.2410 h1        1 MOL      0.133956
    121 H55        -2.0300   -3.4350    3.8810 h1        1 MOL     -0.031586
    122 H56        -0.2650   -3.0140    2.9800 ho        1 MOL      0.385527
    123 H57        -2.9590   -2.5070    5.8160 hc        1 MOL      0.072348
    124 H58        -1.3350   -3.1360    6.0020 hc        1 MOL      0.072348
    125 H59        -1.5010   -1.4500    6.1150 hc        1 MOL      0.072348
    126 N11        -4.4450   -0.4790    2.6300 n         1 MOL     -0.687179
    127 C39        -5.9150   -0.5720    2.3590 c3        1 MOL      0.062245
    128 C40        -6.0150   -0.8170    0.8550 c         1 MOL      0.637689
    129 O19        -5.4510   -0.0690    0.1140 o         1 MOL     -0.531845
    130 C41        -6.6540    0.6920    2.7640 c3        1 MOL      0.558782
    131 C42        -8.1170    0.5560    2.4610 c3        1 MOL     -0.454241
    132 O20        -6.5260    0.9340    4.1440 oh        1 MOL     -0.620729
    133 H60        -3.9000    0.2790    2.2570 hn        1 MOL      0.323056
    134 H61        -6.4420   -1.3370    2.9210 h1        1 MOL      0.068063
    135 H62        -6.2080    1.5150    2.2060 h1        1 MOL     -0.084245
    136 H63        -5.6730    1.3650    4.2160 ho        1 MOL      0.367879
    137 H64        -8.5820    1.4260    2.9190 hc        1 MOL      0.106157
    138 H65        -8.1850    0.6300    1.3710 hc        1 MOL      0.106157
    139 H66        -8.5200   -0.3470    2.9210 hc        1 MOL      0.106157
    140 N12        -6.9080   -1.7620    0.4940 n         1 MOL     -0.633120
    141 C43        -7.0850   -2.3250   -0.8680 c3        1 MOL      0.387070
    142 C44        -5.8140   -2.2550   -1.6490 c         1 MOL      0.392901
    143 O21        -5.8210   -1.5770   -2.7100 o         1 MOL     -0.523272
    144 C45        -8.3190   -1.6940   -1.4980 c3        1 MOL     -0.342611
    145 C46        -9.6390   -2.1610   -0.8760 c3        1 MOL      0.223490
    146 C47       -10.8690   -1.5250   -1.7000 c3        1 MOL      0.038991
    147 C48       -12.1530   -1.8670   -0.9950 c3        1 MOL     -0.184078
    148 N13       -12.2320   -1.2020    0.3070 n4        1 MOL     -0.091898
    149 H67        -7.4380   -2.2620    1.1910 hn        1 MOL      0.276367
    150 H68        -7.2670   -3.4010   -0.7840 h1        1 MOL     -0.023983
    151 H69        -8.4550   -1.9300   -2.5630 hc        1 MOL      0.098687
    152 H70        -8.1460   -0.6280   -1.3700 hc        1 MOL      0.098687
    153 H71        -9.7000   -1.7870    0.1470 hc        1 MOL     -0.048333
    154 H72        -9.7850   -3.2330   -0.9430 hc        1 MOL     -0.048333
    155 H73       -10.9120   -1.8640   -2.7340 hc        1 MOL      0.037820
    156 H74       -10.7330   -0.4510   -1.7230 hc        1 MOL      0.037820
    157 H75       -12.3720   -2.9350   -0.9750 hx        1 MOL      0.130808
    158 H76       -13.0200   -1.5260   -1.5780 hx        1 MOL      0.130808
    159 H77       -13.1430   -1.2640    0.7340 hn        1 MOL      0.184851
    160 H78       -11.7570   -1.7350    1.0250 hn        1 MOL      0.184851
    161 H79       -11.8950   -0.2590    0.3620 hn        1 MOL      0.184851
    162 N14        -4.7780   -2.9040   -1.1950 n         1 MOL     -0.470560
    163 C49        -3.4310   -2.8710   -1.8870 c3        1 MOL      0.305058
    164 C50        -2.3920   -2.6300   -0.8220 c         1 MOL      0.171546
    165 O22        -2.1900   -1.4730   -0.4820 o         1 MOL     -0.357406
    166 C51        -3.1820   -4.0410   -2.8650 c3        1 MOL     -0.228379
    167 C52        -4.0040   -3.9130   -4.1640 c3        1 MOL     -0.206655
    168 C53        -3.5600   -5.0600   -5.1280 c         1 MOL      0.678804
    169 O23        -4.2150   -6.1680   -5.1920 o         1 MOL     -0.624678
    170 O24        -2.5220   -4.8570   -5.8000 o         1 MOL     -0.624678
    171 H80        -4.9300   -3.4530   -0.3510 hn        1 MOL      0.304152
    172 H81        -3.4710   -1.9780   -2.5110 h1        1 MOL      0.084865
    173 H82        -3.3030   -5.0090   -2.3690 hc        1 MOL      0.102339
    174 H83        -2.1500   -3.9620   -3.1940 hc        1 MOL      0.102339
    175 H84        -3.9250   -2.9470   -4.6630 hc        1 MOL      0.057689
    176 H85        -5.0800   -4.0750   -4.0590 hc        1 MOL      0.057689
    177 N15        -1.6250   -3.6490   -0.2820 n         1 MOL     -0.269346
    178 C54        -1.8720   -5.0770    0.0890 c3        1 MOL     -0.016072
    179 H86        -2.6480   -5.1240    0.8540 h1        1 MOL      0.050182
    180 H87        -2.1980   -5.6310   -0.7920 h1        1 MOL      0.050182
    181 H88        -0.9540   -5.5170    0.4760 h1        1 MOL      0.050182
    182 H89        -0.8510   -3.1630    0.1530 hn        1 MOL      0.214112
    183 Ca1        -0.5620    0.6900   -0.9650 Ca        1 MOL      1.687473
    184 O25        -1.5110   -0.3310   -3.3750 oh        1 MOL     -0.901246
    185 H90        -2.3510   -0.1500   -3.8020 ho        1 MOL      0.436673
    186 H91        -0.8900   -0.4200   -4.1030 ho        1 MOL      0.436673
    187 O26         1.3860   -0.3340   -2.4140 oh        1 MOL     -0.901246
    188 H92         1.5610   -0.3700   -3.3520 ho        1 MOL      0.436673
    189 H93         2.2410   -0.5120   -2.0040 ho        1 MOL      0.436673
    190 O27        -3.1900    1.3280   -1.2010 oh        1 MOL     -0.901246
    191 H94        -3.8140    1.8450   -1.7080 ho        1 MOL      0.436673
    192 H95        -3.7260    0.7080   -0.7070 ho        1 MOL      0.436673
@<TRIPOS>BOND
     1    1    2 1   
     2    1    4 1   
     3    1    5 1   
     4    1    6 1   
     5    2    3 2   
     6    2    7 1   
     7    7    8 1   
     8    7   15 1   
     9    8    9 1   
    10    8   11 1   
    11    8   16 1   
    12    9   10 2   
    13    9   19 1   
    14   11   12 1   
    15   11   17 1   
    16   11   18 1   
    17   12   13 1   
    18   12   14 1   
    19   19   20 1   
    20   19   28 1   
    21   20   21 1   
    22   20   23 1   
    23   20   29 1   
    24   21   22 2   
    25   21   41 1   
    26   23   24 1   
    27   23   30 1   
    28   23   31 1   
    29   24   25 1   
    30   24   32 1   
    31   24   33 1   
    32   25   26 1   
    33   25   34 1   
    34   25   35 1   
    35   26   27 1   
    36   26   36 1   
    37   26   37 1   
    38   27   38 1   
    39   27   39 1   
    40   27   40 1   
    41   41   42 1   
    42   41   49 1   
    43   42   43 1   
    44   42   45 1   
    45   42   50 1   
    46   43   44 2   
    47   43   53 1   
    48   45   46 1   
    49   45   51 1   
    50   45   52 1   
    51   46   47 1   
    52   46   48 1   
    53   53   54 1   
    54   53   57 1   
    55   54   55 1   
    56   54   58 1   
    57   54   59 1   
    58   55   56 2   
    59   55   60 1   
    60   60   61 1   
    61   60   68 1   
    62   61   62 1   
    63   61   64 1   
    64   61   69 1   
    65   62   63 2   
    66   62   72 1   
    67   64   65 1   
    68   64   70 1   
    69   64   71 1   
    70   65   66 1   
    71   65   67 1   
    72   72   73 1   
    73   72   76 1   
    74   73   74 1   
    75   73   77 1   
    76   73   78 1   
    77   74   75 2   
    78   74   79 1   
    79   79   80 1   
    80   79   86 1   
    81   80   81 1   
    82   80   83 1   
    83   80   87 1   
    84   81   82 2   
    85   81   93 1   
    86   83   84 1   
    87   83   85 1   
    88   83   88 1   
    89   84   90 1   
    90   84   91 1   
    91   84   92 1   
    92   85   89 1   
    93   93   94 1   
    94   93  101 1   
    95   94   95 1   
    96   94   97 1   
    97   94  102 1   
    98   95   96 2   
    99   95  112 1   
   100   97   98 1   
   101   97   99 1   
   102   97  103 1   
   103   98  100 1   
   104   98  104 1   
   105   98  105 1   
   106   99  106 1   
   107   99  107 1   
   108   99  108 1   
   109  100  109 1   
   110  100  110 1   
   111  100  111 1   
   112  112  113 1   
   113  112  119 1   
   114  113  114 1   
   115  113  116 1   
   116  113  120 1   
   117  114  115 2   
   118  114  126 1   
   119  116  117 1   
   120  116  118 1   
   121  116  121 1   
   122  117  123 1   
   123  117  124 1   
   124  117  125 1   
   125  118  122 1   
   126  126  127 1   
   127  126  133 1   
   128  127  128 1   
   129  127  130 1   
   130  127  134 1   
   131  128  129 2   
   132  128  140 1   
   133  130  131 1   
   134  130  132 1   
   135  130  135 1   
   136  131  137 1   
   137  131  138 1   
   138  131  139 1   
   139  132  136 1   
   140  140  141 1   
   141  140  149 1   
   142  141  142 1   
   143  141  144 1   
   144  141  150 1   
   145  142  143 2   
   146  142  162 1   
   147  144  145 1   
   148  144  151 1   
   149  144  152 1   
   150  145  146 1   
   151  145  153 1   
   152  145  154 1   
   153  146  147 1   
   154  146  155 1   
   155  146  156 1   
   156  147  148 1   
   157  147  157 1   
   158  147  158 1   
   159  148  159 1   
   160  148  160 1   
   161  148  161 1   
   162  162  163 1   
   163  162  171 1   
   164  163  164 1   
   165  163  166 1   
   166  163  172 1   
   167  164  165 2   
   168  164  177 1   
   169  166  167 1   
   170  166  173 1   
   171  166  174 1   
   172  167  168 1   
   173  167  175 1   
   174  167  176 1   
   175  168  169 1   
   176  168  170 1   
   177  177  178 1   
   178  177  182 1   
   179  178  179 1   
   180  178  180 1   
   181  178  181 1   
   182  184  185 1   
   183  184  186 1   
   184  187  188 1   
   185  187  189 1   
   186  190  191 1   
   187  190  192 1   
@<TRIPOS>SUBSTRUCTURE
     1 MOL         1 TEMP              0 ****  ****    0 ROOT
