@<TRIPOS>MOLECULE
MOL
  192   187     1     0     0
SMALL
resp


@<TRIPOS>ATOM
      1 C1          4.9510    4.4710   -3.2600 c3        1 MOL     -0.338631
      2 C2          5.5700    3.4220   -2.2960 c         1 MOL      0.903117
      3 O1          5.0910    3.2370   -1.1340 o         1 MOL     -0.765494
      4 H1          4.1250    4.9780   -2.7620 hc        1 MOL      0.087919
      5 H2          5.7100    5.2020   -3.5380 hc        1 MOL      0.087919
      6 H3          4.5830    3.9700   -4.1550 hc        1 MOL      0.087919
      7 N1          6.6150    2.6620   -2.6170 n         1 MOL     -0.803382
      8 C3          7.2250    1.5380   -2.0220 c3        1 MOL      0.433871
      9 C4          6.1380    0.4590   -1.7900 c         1 MOL      0.062449
     10 O2          5.6880    0.2760   -0.6440 o         1 MOL     -0.027930
     11 C5          8.3440    1.8070   -0.9770 c3        1 MOL     -0.038234
     12 C6          7.9440    2.6940    0.1700 c         1 MOL      0.709350
     13 O3          7.3230    2.0390    1.0460 o         1 MOL     -0.730550
     14 O4          8.0710    3.9260    0.1260 o         1 MOL     -0.730550
     15 H4          7.0460    2.9270   -3.4910 hn        1 MOL      0.325134
     16 H5          7.8520    1.0670   -2.7880 h1        1 MOL     -0.011638
     17 H6          9.2050    2.2130   -1.5090 hc        1 MOL     -0.028462
     18 H7          8.6190    0.8610   -0.5230 hc        1 MOL     -0.028462
     19 N2          5.7030   -0.2640   -2.8890 n         1 MOL     -0.368560
     20 C7          4.7580   -1.3200   -2.9450 c3        1 MOL     -0.025006
     21 C8          5.0950   -2.5950   -2.1650 c         1 MOL      0.428732
     22 O5          5.0660   -3.6780   -2.7690 o         1 MOL     -0.570984
     23 C9          3.3390   -0.8160   -2.6360 c3        1 MOL      0.246620
     24 C10         2.3160   -1.9830   -2.8850 c3        1 MOL      0.045406
     25 C11         2.8950    0.4010   -3.4780 c3        1 MOL     -0.259351
     26 C12         2.0860   -2.5300   -4.2950 c3        1 MOL     -0.529229
     27 H8          5.9930    0.0570   -3.8050 hn        1 MOL      0.272250
     28 H9          4.7420   -1.5300   -4.0180 h1        1 MOL      0.075810
     29 H10         3.3720   -0.5680   -1.5690 hc        1 MOL     -0.179953
     30 H11         1.3070   -1.6470   -2.6280 hc        1 MOL      0.072966
     31 H12         2.5230   -2.8300   -2.2390 hc        1 MOL      0.072966
     32 H13         3.5250    1.2540   -3.2090 hc        1 MOL      0.045354
     33 H14         2.8000    0.2680   -4.5600 hc        1 MOL      0.045354
     34 H15         1.9570    0.7820   -3.0700 hc        1 MOL      0.045354
     35 H16         3.0740   -2.6790   -4.7080 hc        1 MOL      0.121499
     36 H17         1.5830   -3.4960   -4.2500 hc        1 MOL      0.121499
     37 H18         1.4750   -1.7900   -4.8240 hc        1 MOL      0.121499
     38 N3          5.5140   -2.5490   -0.8890 n         1 MOL      0.030167
     39 C13         6.1010   -3.6870   -0.1870 c3        1 MOL     -0.002299
     40 C14         5.2650   -4.9070    0.2010 c         1 MOL      0.491722
     41 O6          5.8320   -6.0320    0.3570 o         1 MOL     -0.599761
     42 C15         7.0000   -3.4230    1.0820 c3        1 MOL     -0.151449
     43 C16         7.9920   -2.2660    0.8140 c         1 MOL      0.686295
     44 O7          8.1760   -1.4290    1.6990 o         1 MOL     -0.689859
     45 O8          8.5610   -2.1670   -0.2920 o         1 MOL     -0.689859
     46 H19         5.7290   -1.6450   -0.4980 hn        1 MOL      0.002923
     47 H20         6.8350   -4.0160   -0.9260 h1        1 MOL      0.035914
     48 H21         7.5890   -4.2780    1.4140 hc        1 MOL      0.049030
     49 H22         6.3580   -3.0520    1.8830 hc        1 MOL      0.049030
     50 N4          3.9730   -4.8310    0.4770 n         1 MOL     -0.464067
     51 C17         3.2370   -3.6000    0.7040 c3        1 MOL      0.096787
     52 C18         1.9050   -3.9310    1.5300 c         1 MOL      0.706613
     53 O9          1.4700   -5.0910    1.5300 o         1 MOL     -0.622892
     54 H23         3.6240   -5.7130    0.8190 hn        1 MOL      0.291987
     55 H24         2.9630   -3.2900   -0.3000 h1        1 MOL      0.025120
     56 H25         3.8870   -2.9120    1.2480 h1        1 MOL      0.025120
     57 N5          1.4170   -3.0630    2.3280 n         1 MOL     -0.783463
     58 C19         1.8210   -1.6110    2.4880 c3        1 MOL      0.121908
     59 C20         1.9680   -0.8740    1.1160 c         1 MOL      0.434529
     60 O10         2.9330   -0.1120    0.9280 o         1 MOL     -0.749636
     61 C21         2.9980   -1.4160    3.4730 c3        1 MOL      0.010968
     62 C22         2.7820   -2.1320    4.8550 c         1 MOL      0.777228
     63 O11         3.6390   -2.9750    5.2350 o         1 MOL     -0.745543
     64 O12         1.9880   -1.6570    5.5850 o         1 MOL     -0.745543
     65 H26         0.7000   -3.4240    2.9310 hn        1 MOL      0.390138
     66 H27         1.0210   -1.1770    3.0860 h1        1 MOL      0.070663
     67 H28         2.9460   -0.3470    3.6430 hc        1 MOL     -0.039224
     68 H29         3.9870   -1.6620    3.0610 hc        1 MOL     -0.039224
     69 N6          1.0820   -1.0420    0.1460 n         1 MOL     -0.062705
     70 C23        -0.3420   -1.3150    0.3360 c3        1 MOL     -0.469808
     71 C24        -0.9470   -2.5680   -0.3770 c         1 MOL      0.549407
     72 O13        -0.3320   -3.1460   -1.3190 o         1 MOL     -0.548449
     73 H30         1.3690   -0.5490   -0.6910 hn        1 MOL      0.327123
     74 H31        -0.9460   -0.4480    0.0620 h1        1 MOL      0.169331
     75 H32        -0.4910   -1.5150    1.3920 h1        1 MOL      0.169331
     76 N7         -2.0540   -3.1330    0.0810 n         1 MOL     -0.387433
     77 C25        -2.5910   -4.3030   -0.6290 c3        1 MOL     -0.101131
     78 C26        -3.3290   -4.0390   -2.0010 c         1 MOL      0.395106
     79 O14        -3.8380   -4.9470   -2.6530 o         1 MOL     -0.502947
     80 C27        -3.5020   -5.1380    0.3250 c3        1 MOL      0.062046
     81 C28        -2.7260   -5.6230    1.6010 c3        1 MOL     -0.013253
     82 C29        -3.5060   -6.5570    2.5060 c         1 MOL      0.583185
     83 N8         -3.5880   -7.8430    2.2370 n         1 MOL     -0.739773
     84 O15        -4.0640   -6.1350    3.4880 o         1 MOL     -0.565034
     85 H33        -2.6100   -2.6090    0.7280 hn        1 MOL      0.316719
     86 H34        -1.7920   -4.9880   -0.9340 h1        1 MOL      0.170425
     87 H35        -3.8520   -6.0780   -0.1170 hc        1 MOL     -0.009096
     88 H36        -4.3640   -4.5550    0.6230 hc        1 MOL     -0.009096
     89 H37        -2.4850   -4.7040    2.1250 hc        1 MOL      0.027696
     90 H38        -1.7940   -6.1480    1.4050 hc        1 MOL      0.027696
     91 H39        -3.1880   -8.3350    1.4640 hn        1 MOL      0.339640
     92 H40        -4.2940   -8.2340    2.8420 hn        1 MOL      0.339640
     93 N9         -3.3620   -2.7570   -2.4390 n         1 MOL     -0.087291
     94 C30        -3.7940   -2.3840   -3.7290 c3        1 MOL     -0.215496
     95 C31        -5.1190   -1.6410   -3.6840 c         1 MOL      0.542046
     96 O16        -5.8660   -1.7610   -4.6850 o         1 MOL     -0.586687
     97 C32        -2.8030   -1.5640   -4.5370 c3        1 MOL      0.325505
     98 C33        -1.6310   -2.5090   -4.9140 c3        1 MOL     -0.289823
     99 C34        -2.2660   -0.2470   -3.8590 c3        1 MOL     -0.289823
    100 H41        -3.2770   -2.0280   -1.7420 hn        1 MOL      0.214595
    101 H42        -4.0310   -3.3140   -4.2460 h1        1 MOL      0.112447
    102 H43        -3.2770   -1.3290   -5.4820 hc        1 MOL     -0.018321
    103 H44        -1.2980   -2.0330   -5.8380 hc        1 MOL      0.063117
    104 H45        -0.9380   -2.4260   -4.0770 hc        1 MOL      0.063117
    105 H46        -1.8760   -3.5530   -5.0980 hc        1 MOL      0.063117
    106 H47        -3.1830    0.3260   -3.7390 hc        1 MOL      0.063117
    107 H48        -1.8710   -0.3810   -2.8550 hc        1 MOL      0.063117
    108 H49        -1.6090    0.3430   -4.4950 hc        1 MOL      0.063117
    109 N10        -5.4900   -0.9800   -2.6310 n         1 MOL     -0.328581
    110 C35        -6.8480   -0.3800   -2.4110 c3        1 MOL      0.192661
    111 C36        -6.7700    0.9740   -1.8030 c         1 MOL      0.637658
    112 O17        -7.4550    1.9010   -2.2660 o         1 MOL     -0.556480
    113 C37        -7.7390   -1.4080   -1.6780 c3        1 MOL     -0.365233
    114 C38        -7.2360   -2.0670   -0.4100 c         1 MOL      0.704151
    115 N11        -8.0600   -2.8120    0.2620 n         1 MOL     -0.776474
    116 O18        -6.1300   -1.8660    0.0380 o         1 MOL     -0.547812
    117 H50        -4.8920   -1.1090   -1.8280 hn        1 MOL      0.113828
    118 H51        -7.2410   -0.1200   -3.3990 h1        1 MOL      0.045777
    119 H52        -7.9400   -2.2300   -2.3580 hc        1 MOL      0.107425
    120 H53        -8.6780   -0.9450   -1.3780 hc        1 MOL      0.107425
    121 H54        -8.9480   -2.9940   -0.1780 hn        1 MOL      0.363425
    122 H55        -7.7640   -3.1340    1.1750 hn        1 MOL      0.363425
    123 N12        -5.9140    1.1490   -0.7310 n         1 MOL     -0.759868
    124 C39        -5.6910    2.3620    0.0360 c3        1 MOL      0.531969
    125 C40        -4.3280    2.9680    0.1780 c         1 MOL      0.304680
    126 O19        -3.3230    2.3070   -0.1140 o         1 MOL     -0.417262
    127 C41        -6.2900    2.1530    1.4800 c3        1 MOL     -0.067859
    128 C42        -7.6380    1.4060    1.5550 ca        1 MOL     -0.041940
    129 C43        -8.7010    1.8070    0.8770 ca        1 MOL     -0.113971
    130 C44        -7.6200    0.1830    2.2380 ca        1 MOL     -0.113971
    131 C45        -9.7840    0.9570    0.8630 ca        1 MOL     -0.212504
    132 C46        -8.7670   -0.5920    2.3160 ca        1 MOL     -0.212504
    133 C47        -9.8860   -0.1990    1.6070 ca        1 MOL      0.279263
    134 O20       -11.0460   -0.9180    1.5010 oh        1 MOL     -0.526787
    135 H56        -5.4510    0.3140   -0.4090 hn        1 MOL      0.338629
    136 H57        -6.3150    3.1630   -0.3730 h1        1 MOL     -0.045989
    137 H58        -6.5420    3.1110    1.9210 hc        1 MOL      0.059613
    138 H59        -5.5230    1.6910    2.1050 hc        1 MOL      0.059613
    139 H60        -8.6590    2.6790    0.2450 ha        1 MOL      0.127542
    140 H61        -6.7740   -0.1100    2.8390 ha        1 MOL      0.127542
    141 H62       -10.6480    1.2560    0.2990 ha        1 MOL      0.123483
    142 H63        -8.7890   -1.5180    2.8910 ha        1 MOL      0.123483
    143 H64       -10.9050   -1.7650    1.9220 ho        1 MOL      0.371876
    144 N13        -4.3130    4.1430    0.8250 n         1 MOL     -0.572018
    145 C48        -3.2310    4.9850    1.4640 c3        1 MOL      0.340129
    146 C49        -1.9950    5.4210    0.5860 c         1 MOL      0.257798
    147 O21        -1.3550    6.4070    0.9330 o         1 MOL     -0.517968
    148 C50        -2.7050    4.4580    2.8280 c3        1 MOL     -0.091075
    149 C51        -3.6530    4.6180    4.0380 c3        1 MOL     -0.167103
    150 C52        -2.9010    3.9430    5.1550 c         1 MOL      0.668624
    151 O22        -2.0580    4.5710    5.8530 o         1 MOL     -0.711542
    152 O23        -3.2870    2.7520    5.4830 o         1 MOL     -0.711542
    153 H65        -5.2420    4.4730    1.0330 hn        1 MOL      0.280303
    154 H66        -3.6580    5.9600    1.6960 h1        1 MOL     -0.008871
    155 H67        -1.8190    5.0450    3.0810 hc        1 MOL      0.085152
    156 H68        -2.5250    3.3870    2.7230 hc        1 MOL      0.085152
    157 H69        -4.5870    4.1080    3.8430 hc        1 MOL     -0.008987
    158 H70        -3.8480    5.6920    4.1150 hc        1 MOL     -0.008987
    159 N14        -1.6020    4.5400   -0.3080 n         1 MOL     -0.070740
    160 C53        -0.4670    4.6540   -1.2200 c3        1 MOL     -0.084725
    161 C54        -0.8520    5.6190   -2.3770 c         1 MOL      0.407270
    162 O24        -0.2230    5.7670   -3.4020 o         1 MOL     -0.525337
    163 C55         0.0060    3.2960   -1.8550 c3        1 MOL     -0.009465
    164 C56         0.0730    2.1510   -0.8110 c3        1 MOL      0.021393
    165 C57         1.1090    2.4250    0.3250 c         1 MOL      0.736406
    166 O25         0.7090    2.6340    1.4680 o         1 MOL     -0.682614
    167 O26         2.3890    2.5180    0.1290 o         1 MOL     -0.682614
    168 H71        -2.1230    3.6760   -0.3010 hn        1 MOL      0.088761
    169 H72         0.4080    5.0460   -0.6920 h1        1 MOL      0.147973
    170 H73         0.9770    3.5440   -2.2850 hc        1 MOL      0.032126
    171 H74        -0.6870    3.0330   -2.6670 hc        1 MOL      0.032126
    172 H75         0.5250    1.3000   -1.3160 hc        1 MOL     -0.062208
    173 H76        -0.9040    1.8620   -0.4400 hc        1 MOL     -0.062208
    174 N15        -2.0400    6.2000   -2.3430 n         1 MOL     -0.229796
    175 C58        -2.3710    7.3050   -3.3270 c3        1 MOL     -0.097582
    176 H77        -1.4630    7.6160   -3.8430 h1        1 MOL      0.063787
    177 H78        -3.0950    6.9390   -4.0540 h1        1 MOL      0.063787
    178 H79        -2.7930    8.1560   -2.7900 h1        1 MOL      0.063787
    179 H80        -2.6610    6.0850   -1.5540 hn        1 MOL      0.178707
    180 Ca1         4.5730    1.9240    1.2550 Ca        1 MOL      1.740527
    181 O27         6.0530   -0.2330    2.4700 oh        1 MOL     -0.838720
    182 H81         6.0690   -0.8090    3.2240 ho        1 MOL      0.408232
    183 H82         6.9250   -0.3440    2.0700 ho        1 MOL      0.408232
    184 O28         4.4750    4.5190    1.3020 oh        1 MOL     -0.838720
    185 H83         4.8670    4.7220    0.4550 ho        1 MOL      0.408232
    186 H84         4.2490    5.3650    1.6720 ho        1 MOL      0.408232
    187 O29         2.7170    2.4240    3.0560 oh        1 MOL     -0.838720
    188 H85         2.4290    2.2500    3.9490 ho        1 MOL      0.408232
    189 H86         1.9280    2.3490    2.5230 ho        1 MOL      0.408232
    190 O30         5.7550    2.6170    3.6680 oh        1 MOL     -0.838720
    191 H87         5.8300    2.3170    4.5810 ho        1 MOL      0.408232
    192 H88         5.3230    3.4720    3.7400 ho        1 MOL      0.408232
@<TRIPOS>BOND
     1    1    2 1   
     2    1    4 1   
     3    1    5 1   
     4    1    6 1   
     5    2    3 2   
     6    2    7 1   
     7    7    8 1   
     8    7   15 1   
     9    8    9 1   
    10    8   11 1   
    11    8   16 1   
    12    9   10 2   
    13    9   19 1   
    14   11   12 1   
    15   11   17 1   
    16   11   18 1   
    17   12   13 1   
    18   12   14 1   
    19   19   20 1   
    20   19   27 1   
    21   20   21 1   
    22   20   23 1   
    23   20   28 1   
    24   21   22 2   
    25   21   38 1   
    26   23   24 1   
    27   23   25 1   
    28   23   29 1   
    29   24   26 1   
    30   24   30 1   
    31   24   31 1   
    32   25   32 1   
    33   25   33 1   
    34   25   34 1   
    35   26   35 1   
    36   26   36 1   
    37   26   37 1   
    38   38   39 1   
    39   38   46 1   
    40   39   40 1   
    41   39   42 1   
    42   39   47 1   
    43   40   41 2   
    44   40   50 1   
    45   42   43 1   
    46   42   48 1   
    47   42   49 1   
    48   43   44 1   
    49   43   45 1   
    50   50   51 1   
    51   50   54 1   
    52   51   52 1   
    53   51   55 1   
    54   51   56 1   
    55   52   53 2   
    56   52   57 1   
    57   57   58 1   
    58   57   65 1   
    59   58   59 1   
    60   58   61 1   
    61   58   66 1   
    62   59   60 2   
    63   59   69 1   
    64   61   62 1   
    65   61   67 1   
    66   61   68 1   
    67   62   63 1   
    68   62   64 1   
    69   69   70 1   
    70   69   73 1   
    71   70   71 1   
    72   70   74 1   
    73   70   75 1   
    74   71   72 2   
    75   71   76 1   
    76   76   77 1   
    77   76   85 1   
    78   77   78 1   
    79   77   80 1   
    80   77   86 1   
    81   78   79 2   
    82   78   93 1   
    83   80   81 1   
    84   80   87 1   
    85   80   88 1   
    86   81   82 1   
    87   81   89 1   
    88   81   90 1   
    89   82   83 1   
    90   82   84 2   
    91   83   91 1   
    92   83   92 1   
    93   93   94 1   
    94   93  100 1   
    95   94   95 1   
    96   94   97 1   
    97   94  101 1   
    98   95   96 2   
    99   95  109 1   
   100   97   98 1   
   101   97   99 1   
   102   97  102 1   
   103   98  103 1   
   104   98  104 1   
   105   98  105 1   
   106   99  106 1   
   107   99  107 1   
   108   99  108 1   
   109  109  110 1   
   110  109  117 1   
   111  110  111 1   
   112  110  113 1   
   113  110  118 1   
   114  111  112 2   
   115  111  123 1   
   116  113  114 1   
   117  113  119 1   
   118  113  120 1   
   119  114  115 1   
   120  114  116 2   
   121  115  121 1   
   122  115  122 1   
   123  123  124 1   
   124  123  135 1   
   125  124  125 1   
   126  124  127 1   
   127  124  136 1   
   128  125  126 2   
   129  125  144 1   
   130  127  128 1   
   131  127  137 1   
   132  127  138 1   
   133  128  129 ar  
   134  128  130 ar  
   135  129  131 ar  
   136  129  139 1   
   137  130  132 ar  
   138  130  140 1   
   139  131  133 ar  
   140  131  141 1   
   141  132  133 ar  
   142  132  142 1   
   143  133  134 1   
   144  134  143 1   
   145  144  145 1   
   146  144  153 1   
   147  145  146 1   
   148  145  148 1   
   149  145  154 1   
   150  146  147 2   
   151  146  159 1   
   152  148  149 1   
   153  148  155 1   
   154  148  156 1   
   155  149  150 1   
   156  149  157 1   
   157  149  158 1   
   158  150  151 1   
   159  150  152 1   
   160  159  160 1   
   161  159  168 1   
   162  160  161 1   
   163  160  163 1   
   164  160  169 1   
   165  161  162 2   
   166  161  174 1   
   167  163  164 1   
   168  163  170 1   
   169  163  171 1   
   170  164  165 1   
   171  164  172 1   
   172  164  173 1   
   173  165  166 1   
   174  165  167 1   
   175  174  175 1   
   176  174  179 1   
   177  175  176 1   
   178  175  177 1   
   179  175  178 1   
   180  181  182 1   
   181  181  183 1   
   182  184  185 1   
   183  184  186 1   
   184  187  188 1   
   185  187  189 1   
   186  190  191 1   
   187  190  192 1   
@<TRIPOS>SUBSTRUCTURE
     1 MOL         1 TEMP              0 ****  ****    0 ROOT
