@<TRIPOS>MOLECULE
MOL
  191   184     1     0     0
SMALL
resp


@<TRIPOS>ATOM
      1 C1         -3.2550    1.9940   -3.0540 c3        1 MOL     -0.358720
      2 C2         -4.4550    1.9310   -1.9920 c         1 MOL      0.627096
      3 O1         -4.3620    1.1540   -1.0110 o         1 MOL     -0.553273
      4 H1         -3.4780    1.3320   -3.8920 hc        1 MOL      0.104041
      5 H2         -3.1450    3.0150   -3.4190 hc        1 MOL      0.104041
      6 H3         -2.3290    1.6750   -2.5760 hc        1 MOL      0.104041
      7 N1         -5.5790    2.6610   -2.2050 n         1 MOL     -0.625990
      8 C3         -6.6890    2.7830   -1.2060 c3        1 MOL      0.290118
      9 C4         -7.2070    1.4380   -0.7010 c         1 MOL      0.473690
     10 O2         -7.4130    1.3080    0.4920 o         1 MOL     -0.484047
     11 C5         -6.3950    3.8130   -0.0750 c3        1 MOL     -0.263028
     12 C6         -5.9080    5.1670   -0.5250 c         1 MOL      0.727518
     13 O3         -5.5500    5.3950   -1.6530 o         1 MOL     -0.709220
     14 O4         -5.7430    5.9870    0.3930 o         1 MOL     -0.709220
     15 H4         -5.6210    3.2920   -2.9960 hn        1 MOL      0.338219
     16 H5         -7.5340    3.1640   -1.7870 h1        1 MOL     -0.000962
     17 H6         -5.5810    3.4370    0.5480 hc        1 MOL      0.051155
     18 H7         -7.3010    3.8830    0.5340 hc        1 MOL      0.051155
     19 N2         -7.4900    0.4820   -1.6170 n         1 MOL     -0.477767
     20 C7         -7.9450   -0.9390   -1.3300 c3        1 MOL     -0.018776
     21 C8         -6.8300   -1.9010   -0.9460 c         1 MOL      0.548744
     22 O5         -7.0890   -3.0530   -0.6320 o         1 MOL     -0.585603
     23 C9         -8.7090   -1.4940   -2.4920 c3        1 MOL     -0.063933
     24 C10        -9.9800   -0.5940   -2.5950 c3        1 MOL      0.029003
     25 C11       -11.0040   -1.3150   -3.4620 c3        1 MOL     -0.061370
     26 C12       -12.1830   -0.3880   -3.6380 c3        1 MOL     -0.099209
     27 N3        -13.2060   -1.0190   -4.6080 n4        1 MOL     -0.101529
     28 H8         -7.0310    0.5780   -2.5130 hn        1 MOL      0.239701
     29 H9         -8.5860   -0.8030   -0.4570 h1        1 MOL      0.120394
     30 H10        -9.0190   -2.5200   -2.2660 hc        1 MOL      0.047140
     31 H11        -8.1640   -1.5960   -3.4320 hc        1 MOL      0.047140
     32 H12        -9.6360    0.3560   -3.0110 hc        1 MOL      0.025946
     33 H13       -10.5150   -0.2790   -1.7010 hc        1 MOL      0.025946
     34 H14       -11.3820   -2.1970   -2.9280 hc        1 MOL      0.045790
     35 H15       -10.4820   -1.6570   -4.3570 hc        1 MOL      0.045790
     36 H16       -11.8410    0.5200   -4.1300 hx        1 MOL      0.118604
     37 H17       -12.6870   -0.3120   -2.6720 hx        1 MOL      0.118604
     38 H18       -13.6200   -1.8940   -4.3220 hn        1 MOL      0.189027
     39 H19       -13.9440   -0.3700   -4.8310 hn        1 MOL      0.189027
     40 H20       -12.7450   -1.1830   -5.4940 hn        1 MOL      0.189027
     41 N4         -5.5760   -1.5080   -0.9000 n         1 MOL     -0.309415
     42 C13        -4.5170   -2.4320   -0.3970 c3        1 MOL     -0.109216
     43 C14        -4.5160   -2.8330    1.0990 c         1 MOL      0.686000
     44 O6         -4.7630   -1.9660    1.9480 o         1 MOL     -0.512830
     45 C15        -3.1180   -1.8770   -0.6940 c3        1 MOL     -0.057461
     46 C16        -2.0590   -2.9620   -0.6740 c         1 MOL      0.626237
     47 O7         -1.7000   -3.5290   -1.7480 o         1 MOL     -0.731282
     48 O8         -1.5090   -3.3220    0.3560 o         1 MOL     -0.731282
     49 H21        -5.2670   -0.6020   -1.2290 hn        1 MOL      0.250696
     50 H22        -4.6830   -3.3690   -0.9430 h1        1 MOL      0.052897
     51 H23        -2.7700   -1.2080    0.0940 hc        1 MOL      0.071449
     52 H24        -3.0620   -1.4020   -1.6690 hc        1 MOL      0.071449
     53 N5         -4.2970   -4.0830    1.4790 n         1 MOL     -0.431546
     54 C17        -4.3610   -4.4500    2.9240 c3        1 MOL     -0.034132
     55 C18        -3.3260   -3.7310    3.7770 c         1 MOL      0.463378
     56 O9         -3.6420   -3.3800    4.8850 o         1 MOL     -0.509281
     57 H25        -4.1540   -4.8140    0.8050 hn        1 MOL      0.236743
     58 H26        -4.2040   -5.5280    3.0370 h1        1 MOL      0.088418
     59 H27        -5.3630   -4.2660    3.2910 h1        1 MOL      0.088418
     60 N6         -2.0720   -3.4330    3.2800 n         1 MOL     -0.451911
     61 C19        -0.9740   -2.8380    4.0720 c3        1 MOL      0.211327
     62 C20        -1.0780   -1.3280    4.3490 c         1 MOL      0.343926
     63 O10        -0.2710   -0.8720    5.1960 o         1 MOL     -0.519701
     64 C21         0.3620   -3.1710    3.4910 c3        1 MOL     -0.579319
     65 C22         0.3980   -4.6590    3.2260 c         1 MOL      0.906872
     66 N7          0.2290   -5.5060    4.1890 n         1 MOL     -0.856589
     67 O11         0.5180   -5.1260    2.1100 o         1 MOL     -0.741888
     68 H28        -1.9030   -3.5760    2.3000 hn        1 MOL      0.234792
     69 H29        -1.0490   -3.3190    5.0480 h1        1 MOL      0.080128
     70 H30         1.1670   -2.9840    4.2080 hc        1 MOL      0.169154
     71 H31         0.4480   -2.6090    2.5640 hc        1 MOL      0.169154
     72 H32         0.1530   -5.2150    5.1550 hn        1 MOL      0.398596
     73 H33         0.3750   -6.4650    3.9230 hn        1 MOL      0.398596
     74 N8         -1.9760   -0.5760    3.7890 n         1 MOL     -0.056174
     75 C23        -2.1850    0.8520    4.2150 c3        1 MOL     -0.364259
     76 C24        -1.4300    1.9420    3.4510 c         1 MOL      0.620713
     77 O12        -0.2360    2.1380    3.6830 o         1 MOL     -0.502140
     78 H34        -2.4670   -0.9980    3.0120 hn        1 MOL      0.208695
     79 H35        -1.9330    0.8480    5.2810 h1        1 MOL      0.157190
     80 H36        -3.2350    1.0760    4.0690 h1        1 MOL      0.157190
     81 N9         -2.0730    2.6500    2.5290 n         1 MOL     -0.499085
     82 C25        -1.4640    3.5280    1.5890 c3        1 MOL      0.078273
     83 C26        -0.5750    2.8280    0.5880 c         1 MOL      0.473560
     84 O13        -0.8360    1.6830    0.2970 o         1 MOL     -0.530908
     85 C27        -2.5230    4.4270    0.9380 c3        1 MOL     -0.022345
     86 C28        -1.8550    5.7140    0.5910 ca        1 MOL      0.059777
     87 C29        -1.5200    6.6090    1.5810 ca        1 MOL     -0.053967
     88 C30        -1.6550    6.1000   -0.7130 ca        1 MOL     -0.053967
     89 C31        -0.7960    7.7400    1.2720 ca        1 MOL     -0.290226
     90 C32        -1.0090    7.3070   -1.1170 ca        1 MOL     -0.290226
     91 C33        -0.4630    8.0570   -0.0570 ca        1 MOL      0.331318
     92 O14         0.5470    9.0120   -0.2460 oh        1 MOL     -0.534061
     93 H37        -3.0590    2.4730    2.4030 hn        1 MOL      0.337048
     94 H38        -0.7640    4.1290    2.1550 h1        1 MOL      0.037183
     95 H39        -3.3150    4.6290    1.6580 hc        1 MOL      0.065667
     96 H40        -3.0080    3.9370    0.0940 hc        1 MOL      0.065667
     97 H41        -1.6880    6.3940    2.6240 ha        1 MOL      0.100890
     98 H42        -2.0920    5.4270   -1.4300 ha        1 MOL      0.100890
     99 H43        -0.5080    8.5000    1.9920 ha        1 MOL      0.149302
    100 H44        -0.7620    7.5030   -2.1500 ha        1 MOL      0.149302
    101 H45         0.4330    9.4460   -1.0960 ho        1 MOL      0.383938
    102 N10         0.4970    3.4910    0.1900 n         1 MOL     -0.316962
    103 C34         1.5160    2.8670   -0.6970 c3        1 MOL     -0.276061
    104 C35         2.5130    1.9150   -0.1060 c         1 MOL      0.469025
    105 O15         3.2770    1.2260   -0.8420 o         1 MOL     -0.547621
    106 C36         2.0500    4.0540   -1.5750 c3        1 MOL      0.043942
    107 C37         3.0340    3.5860   -2.6850 c3        1 MOL      0.175554
    108 C38         2.6850    5.0870   -0.6760 c3        1 MOL     -0.229578
    109 C39         3.0380    4.5790   -3.8270 c3        1 MOL     -0.363782
    110 H46         0.5800    4.4790    0.4050 hn        1 MOL      0.196301
    111 H47         0.9360    2.2280   -1.3710 h1        1 MOL      0.152626
    112 H48         1.2010    4.5400   -2.0490 hc        1 MOL      0.042321
    113 H49         2.8430    2.6360   -3.1760 hc        1 MOL      0.020199
    114 H50         4.0180    3.3070   -2.2940 hc        1 MOL      0.020199
    115 H51         1.9490    5.6180   -0.0670 hc        1 MOL      0.065392
    116 H52         3.4280    4.6390   -0.0180 hc        1 MOL      0.065392
    117 H53         3.3110    5.7890   -1.2310 hc        1 MOL      0.065392
    118 H54         2.0380    4.8980   -4.1050 hc        1 MOL      0.082512
    119 H55         3.7720    5.3610   -3.6310 hc        1 MOL      0.082512
    120 H56         3.5140    4.2100   -4.7370 hc        1 MOL      0.082512
    121 N11         2.6000    1.8430    1.2290 n         1 MOL      0.105904
    122 C40         3.3540    0.8370    2.0430 c3        1 MOL     -0.626956
    123 C41         4.7620    1.2930    2.4160 c         1 MOL      0.730240
    124 O16         5.5090    0.5850    3.1280 o         1 MOL     -0.529909
    125 C42         2.4870    0.3940    3.2190 c3        1 MOL      0.102811
    126 O17         2.2760    1.3440    4.2140 oh        1 MOL     -0.485556
    127 H57         2.1000    2.4640    1.8490 hn        1 MOL      0.154523
    128 H58         3.5560   -0.0220    1.3980 h1        1 MOL      0.209734
    129 H59         3.1620   -0.2310    3.8040 h1        1 MOL      0.099682
    130 H60         1.6440   -0.1850    2.8260 h1        1 MOL      0.099682
    131 H61         1.4860    1.8520    4.0110 ho        1 MOL      0.336895
    132 N12         5.1140    2.5380    1.9730 n         1 MOL     -0.396524
    133 C43         6.4240    3.2010    2.1720 c3        1 MOL      0.158537
    134 C44         7.6430    2.4020    1.6020 c         1 MOL      0.463480
    135 O18         8.7780    2.8560    1.8910 o         1 MOL     -0.527065
    136 C45         6.5210    3.6600    3.6270 c3        1 MOL     -0.236533
    137 H62         4.5060    2.9840    1.3000 hn        1 MOL      0.185550
    138 H63         6.3990    4.1450    1.6310 h1        1 MOL      0.058825
    139 H64         5.7760    4.4210    3.8870 hc        1 MOL      0.073634
    140 H65         6.2240    2.8420    4.2780 hc        1 MOL      0.073634
    141 H66         7.5240    3.9880    3.9130 hc        1 MOL      0.073634
    142 N13         7.4310    1.3050    0.8740 n         1 MOL     -0.564353
    143 C46         8.4500    0.3520    0.6280 c3        1 MOL      0.528932
    144 C47         8.5150   -0.0930   -0.8390 c         1 MOL      0.408048
    145 O19         7.6220    0.3230   -1.5520 o         1 MOL     -0.489658
    146 C48         8.1150   -0.9580    1.4640 c3        1 MOL     -0.365055
    147 H67         6.5040    1.1020    0.5440 hn        1 MOL      0.255837
    148 H68         9.4450    0.7350    0.8510 h1        1 MOL     -0.057712
    149 H69         7.0980   -1.2630    1.2370 hc        1 MOL      0.082872
    150 H70         8.8550   -1.7260    1.2580 hc        1 MOL      0.082872
    151 H71         8.2100   -0.7740    2.5390 hc        1 MOL      0.082872
    152 N14         9.5070   -0.8050   -1.2910 n         1 MOL     -0.429996
    153 C49         9.5980   -1.4100   -2.7280 c3        1 MOL      0.110932
    154 C50         9.4520   -0.5240   -3.9390 c         1 MOL      0.359413
    155 O20         8.9620   -0.8250   -5.0520 o         1 MOL     -0.434583
    156 C51         8.7980   -2.7350   -2.7460 c3        1 MOL      0.008351
    157 C52         7.3150   -2.4680   -2.7890 c3        1 MOL     -0.347355
    158 C53         6.6200   -3.7610   -3.2510 c         1 MOL      0.732950
    159 O21         5.9800   -3.7150   -4.3260 o         1 MOL     -0.671286
    160 O22         6.6510   -4.8500   -2.5670 o         1 MOL     -0.671286
    161 H72        10.2890   -0.9580   -0.6670 hn        1 MOL      0.257678
    162 H73        10.6090   -1.7670   -2.8760 h1        1 MOL      0.034047
    163 H74         9.1000   -3.3580   -1.9100 hc        1 MOL      0.021752
    164 H75         9.0900   -3.2250   -3.6690 hc        1 MOL      0.021752
    165 H76         7.0920   -1.6620   -3.4950 hc        1 MOL      0.111651
    166 H77         6.9790   -2.2470   -1.7740 hc        1 MOL      0.111651
    167 N15         9.8320    0.7710   -3.7440 n         1 MOL     -0.305905
    168 C54         9.3600    1.8850   -4.5580 c3        1 MOL     -0.123549
    169 H78         9.6660    2.8250   -4.1000 h1        1 MOL      0.084445
    170 H79         9.7890    1.8120   -5.5570 h1        1 MOL      0.084445
    171 H80         8.2720    1.8510   -4.6260 h1        1 MOL      0.084445
    172 H81        10.2460    1.0400   -2.8690 hn        1 MOL      0.226315
    173 Ca1         0.2350   -5.2370   -0.4590 Ca        1 MOL      1.674948
    174 O23         2.9760   -5.6520   -0.8810 oh        1 MOL     -0.767026
    175 H82         3.3310   -6.5210   -1.0410 ho        1 MOL      0.396055
    176 H83         3.5150   -5.2990   -0.1690 ho        1 MOL      0.396055
    177 O24         1.2470   -7.7680   -0.0600 oh        1 MOL     -0.767026
    178 H84         1.6830   -8.4420    0.4560 ho        1 MOL      0.396055
    179 H85         1.0100   -8.2100   -0.8720 ho        1 MOL      0.396055
    180 O25         1.8160   -3.0890    0.1150 oh        1 MOL     -0.767026
    181 H86         1.2540   -2.3190    0.1200 ho        1 MOL      0.396055
    182 H87         2.7050   -2.7430    0.0710 ho        1 MOL      0.396055
    183 O26        -1.6230   -6.8690    0.3500 oh        1 MOL     -0.767026
    184 H88        -1.6830   -7.8210    0.3850 ho        1 MOL      0.396055
    185 H89        -2.5320   -6.5690    0.3270 ho        1 MOL      0.396055
    186 O27        -0.2190   -6.5870   -2.6840 oh        1 MOL     -0.767026
    187 H90         0.3100   -7.1870   -3.2200 ho        1 MOL      0.396055
    188 H91        -1.1060   -6.7100   -3.0160 ho        1 MOL      0.396055
    189 O28         1.4150   -4.0920   -2.6270 oh        1 MOL     -0.767026
    190 H92         2.0710   -3.4340   -2.4090 ho        1 MOL      0.396055
    191 H93         1.1800   -3.9000   -3.5380 ho        1 MOL      0.396055
@<TRIPOS>BOND
     1    1    2 1   
     2    1    4 1   
     3    1    5 1   
     4    1    6 1   
     5    2    3 2   
     6    2    7 1   
     7    7    8 1   
     8    7   15 1   
     9    8    9 1   
    10    8   11 1   
    11    8   16 1   
    12    9   10 2   
    13    9   19 1   
    14   11   12 1   
    15   11   17 1   
    16   11   18 1   
    17   12   13 1   
    18   12   14 1   
    19   19   20 1   
    20   19   28 1   
    21   20   21 1   
    22   20   23 1   
    23   20   29 1   
    24   21   22 2   
    25   21   41 1   
    26   23   24 1   
    27   23   30 1   
    28   23   31 1   
    29   24   25 1   
    30   24   32 1   
    31   24   33 1   
    32   25   26 1   
    33   25   34 1   
    34   25   35 1   
    35   26   27 1   
    36   26   36 1   
    37   26   37 1   
    38   27   38 1   
    39   27   39 1   
    40   27   40 1   
    41   41   42 1   
    42   41   49 1   
    43   42   43 1   
    44   42   45 1   
    45   42   50 1   
    46   43   44 2   
    47   43   53 1   
    48   45   46 1   
    49   45   51 1   
    50   45   52 1   
    51   46   47 1   
    52   46   48 1   
    53   53   54 1   
    54   53   57 1   
    55   54   55 1   
    56   54   58 1   
    57   54   59 1   
    58   55   56 2   
    59   55   60 1   
    60   60   61 1   
    61   60   68 1   
    62   61   62 1   
    63   61   64 1   
    64   61   69 1   
    65   62   63 2   
    66   62   74 1   
    67   64   65 1   
    68   64   70 1   
    69   64   71 1   
    70   65   66 1   
    71   65   67 2   
    72   66   72 1   
    73   66   73 1   
    74   74   75 1   
    75   74   78 1   
    76   75   76 1   
    77   75   79 1   
    78   75   80 1   
    79   76   77 2   
    80   76   81 1   
    81   81   82 1   
    82   81   93 1   
    83   82   83 1   
    84   82   85 1   
    85   82   94 1   
    86   83   84 2   
    87   83  102 1   
    88   85   86 1   
    89   85   95 1   
    90   85   96 1   
    91   86   87 ar  
    92   86   88 ar  
    93   87   89 ar  
    94   87   97 1   
    95   88   90 ar  
    96   88   98 1   
    97   89   91 ar  
    98   89   99 1   
    99   90   91 ar  
   100   90  100 1   
   101   91   92 1   
   102   92  101 1   
   103  102  103 1   
   104  102  110 1   
   105  103  104 1   
   106  103  106 1   
   107  103  111 1   
   108  104  105 2   
   109  104  121 1   
   110  106  107 1   
   111  106  108 1   
   112  106  112 1   
   113  107  109 1   
   114  107  113 1   
   115  107  114 1   
   116  108  115 1   
   117  108  116 1   
   118  108  117 1   
   119  109  118 1   
   120  109  119 1   
   121  109  120 1   
   122  121  122 1   
   123  121  127 1   
   124  122  123 1   
   125  122  125 1   
   126  122  128 1   
   127  123  124 2   
   128  123  132 1   
   129  125  126 1   
   130  125  129 1   
   131  125  130 1   
   132  126  131 1   
   133  132  133 1   
   134  132  137 1   
   135  133  134 1   
   136  133  136 1   
   137  133  138 1   
   138  134  135 2   
   139  134  142 1   
   140  136  139 1   
   141  136  140 1   
   142  136  141 1   
   143  142  143 1   
   144  142  147 1   
   145  143  144 1   
   146  143  146 1   
   147  143  148 1   
   148  144  145 2   
   149  144  152 1   
   150  146  149 1   
   151  146  150 1   
   152  146  151 1   
   153  152  153 1   
   154  152  161 1   
   155  153  154 1   
   156  153  156 1   
   157  153  162 1   
   158  154  155 2   
   159  154  167 1   
   160  156  157 1   
   161  156  163 1   
   162  156  164 1   
   163  157  158 1   
   164  157  165 1   
   165  157  166 1   
   166  158  159 1   
   167  158  160 1   
   168  167  168 1   
   169  167  172 1   
   170  168  169 1   
   171  168  170 1   
   172  168  171 1   
   173  174  175 1   
   174  174  176 1   
   175  177  178 1   
   176  177  179 1   
   177  180  181 1   
   178  180  182 1   
   179  183  184 1   
   180  183  185 1   
   181  186  187 1   
   182  186  188 1   
   183  189  190 1   
   184  189  191 1   
@<TRIPOS>SUBSTRUCTURE
     1 MOL         1 TEMP              0 ****  ****    0 ROOT
