@<TRIPOS>MOLECULE
MOL
  186   183     1     0     0
SMALL
resp


@<TRIPOS>ATOM
      1 C1        -11.3300    4.3380    4.2030 c3        1 MOL     -0.413884
      2 C2        -11.2610    3.6200    2.8580 c         1 MOL      0.709698
      3 O1        -11.2160    2.4260    2.7660 o         1 MOL     -0.554690
      4 H1        -10.3430    4.3360    4.6660 hc        1 MOL      0.104154
      5 H2        -11.6570    5.3660    4.0500 hc        1 MOL      0.104154
      6 H3        -12.0380    3.8240    4.8540 hc        1 MOL      0.104154
      7 N1        -11.1650    4.4160    1.7990 n         1 MOL     -0.496644
      8 C3        -10.9830    3.9760    0.4320 c3        1 MOL     -0.580268
      9 C4         -9.8780    2.9020    0.2310 c         1 MOL      0.936635
     10 O2         -8.7730    2.9650    0.7740 o         1 MOL     -0.819523
     11 C5        -10.6720    5.2100   -0.4670 c3        1 MOL     -0.238567
     12 C6         -9.6010    6.2080    0.0390 c         1 MOL      0.750161
     13 O3         -8.4750    5.8690    0.3310 o         1 MOL     -0.721569
     14 O4         -9.8440    7.4290    0.1100 o         1 MOL     -0.721569
     15 H4        -11.4780    5.3720    1.8670 hn        1 MOL      0.402691
     16 H5        -11.9310    3.5180    0.1320 h1        1 MOL      0.236803
     17 H6        -11.6520    5.6970   -0.4400 hc        1 MOL      0.138475
     18 H7        -10.4110    4.9790   -1.5040 hc        1 MOL      0.138475
     19 N2        -10.0660    2.0310   -0.7540 n         1 MOL     -0.535733
     20 C7         -9.4490    0.6740   -0.6400 c3        1 MOL     -0.013855
     21 C8         -7.9380    0.5140   -0.5380 c         1 MOL      0.676440
     22 O5         -7.5560   -0.5910   -0.3270 o         1 MOL     -0.547758
     23 C9        -10.0280   -0.3150   -1.7010 c3        1 MOL     -0.091069
     24 C10       -10.8410   -1.4930   -1.0770 c3        1 MOL     -0.152800
     25 C11       -11.3070   -2.5810   -2.0850 c3        1 MOL      0.111524
     26 C12       -12.0390   -3.7030   -1.3850 c3        1 MOL     -0.031870
     27 N3        -11.1020   -4.4690   -0.5010 n4        1 MOL     -0.331999
     28 H8        -10.9900    1.9530   -1.1460 hn        1 MOL      0.290460
     29 H9         -9.8070    0.3290    0.3340 h1        1 MOL      0.068489
     30 H10        -9.2380   -0.8220   -2.2570 hc        1 MOL      0.060283
     31 H11       -10.6480    0.2080   -2.4260 hc        1 MOL      0.060283
     32 H12       -11.7590   -1.0020   -0.7350 hc        1 MOL      0.038858
     33 H13       -10.2500   -1.9380   -0.2800 hc        1 MOL      0.038858
     34 H14       -10.4350   -2.9700   -2.6040 hc        1 MOL      0.036960
     35 H15       -12.0190   -2.2120   -2.8290 hc        1 MOL      0.036960
     36 H16       -12.5130   -4.3220   -2.1420 hx        1 MOL      0.090639
     37 H17       -12.8350   -3.2730   -0.7660 hx        1 MOL      0.090639
     38 H18       -11.5580   -5.0600    0.1850 hn        1 MOL      0.319932
     39 H19       -10.5140   -5.1090   -1.0060 hn        1 MOL      0.319932
     40 H20       -10.4510   -3.9330    0.0500 hn        1 MOL      0.319932
     41 N4         -7.1950    1.5300   -1.0300 n         1 MOL     -0.114529
     42 C13        -5.7110    1.4390   -1.3360 c3        1 MOL     -0.643402
     43 C14        -4.8830    1.6290   -0.0940 c         1 MOL      0.710384
     44 O6         -5.1390    2.4280    0.8130 o         1 MOL     -0.696423
     45 C15        -5.3090    2.3860   -2.4870 c3        1 MOL     -0.000511
     46 C16        -5.9130    3.7700   -2.4400 c         1 MOL      0.619992
     47 O7         -5.6090    4.5350   -3.3440 o         1 MOL     -0.651704
     48 O8         -6.5700    4.1060   -1.4520 o         1 MOL     -0.651704
     49 H21        -7.6470    2.4190   -1.1660 hn        1 MOL      0.207558
     50 H22        -5.5400    0.4110   -1.6700 h1        1 MOL      0.250499
     51 H23        -5.6020    1.9240   -3.4280 hc        1 MOL      0.063062
     52 H24        -4.2320    2.5320   -2.5520 hc        1 MOL      0.063062
     53 N5         -3.7150    0.9090   -0.0200 n         1 MOL     -0.428110
     54 C17        -3.1550   -0.1060   -0.8710 c3        1 MOL     -0.021609
     55 C18        -3.7540   -1.4950   -0.7510 c         1 MOL      0.693532
     56 O9         -4.0020   -2.0640    0.3450 o         1 MOL     -0.555780
     57 H25        -3.1860    1.1600    0.7960 hn        1 MOL      0.294056
     58 H26        -2.0940   -0.3220   -0.7320 h1        1 MOL      0.073322
     59 H27        -3.3190    0.1470   -1.9200 h1        1 MOL      0.073322
     60 N6         -4.0740   -2.0800   -1.9520 n         1 MOL     -0.683452
     61 C19        -4.6430   -3.4740   -1.9860 c3        1 MOL      0.276421
     62 C20        -3.4850   -4.5070   -1.9350 c         1 MOL      0.333409
     63 O10        -2.3240   -4.3490   -2.3900 o         1 MOL     -0.482659
     64 C21        -5.5700   -3.5640   -3.2020 c3        1 MOL     -0.109657
     65 C22        -6.5110   -4.6630   -3.0950 c         1 MOL      0.639760
     66 O11        -7.7110   -4.3890   -2.8680 o         1 MOL     -0.715979
     67 O12        -6.1260   -5.8760   -3.1120 o         1 MOL     -0.715979
     68 H28        -3.5630   -1.8200   -2.7810 hn        1 MOL      0.332252
     69 H29        -5.2740   -3.6360   -1.1040 h1        1 MOL      0.038789
     70 H30        -5.0220   -3.6000   -4.1430 hc        1 MOL      0.024818
     71 H31        -6.1120   -2.6200   -3.2350 hc        1 MOL      0.024818
     72 N7         -3.7980   -5.7220   -1.3830 n         1 MOL     -0.233071
     73 C23        -2.8380   -6.7870   -1.0640 c3        1 MOL     -0.146227
     74 C24        -1.6950   -6.4700   -0.0500 c         1 MOL      0.495497
     75 O13        -1.1190   -7.4080    0.4010 o         1 MOL     -0.527247
     76 H32        -4.7260   -5.8850   -1.0030 hn        1 MOL      0.239392
     77 H33        -2.3850   -7.1840   -1.9680 h1        1 MOL      0.111133
     78 H34        -3.3710   -7.6820   -0.7290 h1        1 MOL      0.111133
     79 N8         -1.5260   -5.1880    0.3590 n         1 MOL     -0.185010
     80 C25        -0.4980   -4.7520    1.2970 c3        1 MOL     -0.040209
     81 C26         0.1920   -3.4230    0.8990 c         1 MOL      0.595277
     82 O14        -0.2200   -2.6420    0.0030 o         1 MOL     -0.497127
     83 C27        -1.2010   -4.5120    2.6850 c3        1 MOL      0.422315
     84 C28        -2.4800   -3.7090    2.7570 c3        1 MOL     -0.262739
     85 O15        -1.3590   -5.7200    3.3610 oh        1 MOL     -0.649727
     86 H35        -2.0320   -4.4450   -0.0890 hn        1 MOL      0.069797
     87 H36         0.3020   -5.4820    1.4640 h1        1 MOL      0.092426
     88 H37        -0.5200   -3.8900    3.2590 h1        1 MOL     -0.112794
     89 H38        -1.8340   -5.6060    4.1890 ho        1 MOL      0.404063
     90 H39        -2.7830   -3.6210    3.8020 hc        1 MOL      0.058706
     91 H40        -2.3420   -2.7690    2.2230 hc        1 MOL      0.058706
     92 H41        -3.1910   -4.3220    2.1900 hc        1 MOL      0.058706
     93 N9          1.2760   -3.1110    1.5540 n         1 MOL     -0.610504
     94 C29         1.9150   -1.6970    1.4840 c3        1 MOL     -0.067118
     95 C30         3.2900   -1.6500    0.7320 c         1 MOL      0.764803
     96 O16         3.3860   -0.7890   -0.1150 o         1 MOL     -0.581615
     97 C31         2.0710   -0.9620    2.8900 c3        1 MOL      0.222874
     98 C32         0.9220   -1.2460    3.8980 c3        1 MOL      0.110329
     99 C33         2.3300    0.6050    2.8020 c3        1 MOL     -0.176721
    100 C34         1.1610   -0.7000    5.2820 c3        1 MOL     -0.363466
    101 H42         1.6080   -3.7610    2.2480 hn        1 MOL      0.309805
    102 H43         1.2650   -0.9830    0.9850 h1        1 MOL      0.087582
    103 H44         3.0190   -1.3330    3.2970 hc        1 MOL     -0.056362
    104 H45         0.8510   -2.3220    4.0540 hc        1 MOL      0.016631
    105 H46        -0.0290   -0.8680    3.5120 hc        1 MOL      0.016631
    106 H47         1.5260    1.1460    2.2930 hc        1 MOL      0.042327
    107 H48         2.4400    0.9880    3.8120 hc        1 MOL      0.042327
    108 H49         3.2340    0.6770    2.1880 hc        1 MOL      0.042327
    109 H50         0.6570    0.2650    5.3610 hc        1 MOL      0.086395
    110 H51         0.6650   -1.3540    5.9970 hc        1 MOL      0.086395
    111 H52         2.2110   -0.6940    5.5550 hc        1 MOL      0.086395
    112 N10         4.2570   -2.5230    1.0050 n         1 MOL     -0.588646
    113 C35         5.6170   -2.5520    0.3400 c3        1 MOL      0.039440
    114 C36         6.7870   -2.5400    1.3520 c         1 MOL      0.614907
    115 O17         6.6040   -2.9640    2.4960 o         1 MOL     -0.541702
    116 C37         5.7040   -3.6910   -0.6680 c3        1 MOL      0.346766
    117 C38         4.8310   -3.4840   -1.8920 c3        1 MOL     -0.333414
    118 O18         7.0150   -3.9400   -1.1370 oh        1 MOL     -0.686311
    119 H53         4.0110   -3.2350    1.6790 hn        1 MOL      0.301345
    120 H54         5.7870   -1.6300   -0.2220 h1        1 MOL      0.087866
    121 H55         5.2320   -4.5520   -0.2070 h1        1 MOL     -0.002088
    122 H56         7.0630   -4.7760   -1.6060 ho        1 MOL      0.425561
    123 H57         5.4000   -2.8050   -2.5250 hc        1 MOL      0.098707
    124 H58         4.7560   -4.4140   -2.4510 hc        1 MOL      0.098707
    125 H59         3.8460   -3.0920   -1.6540 hc        1 MOL      0.098707
    126 N11         7.9660   -2.1490    0.8850 n         1 MOL     -0.709267
    127 C39         9.2620   -2.1920    1.5870 c3        1 MOL      0.231885
    128 C40         9.9830   -0.8700    1.6400 c         1 MOL      0.599823
    129 O19        10.2500   -0.4940    2.7750 o         1 MOL     -0.558900
    130 C41        10.0940   -3.3000    0.8700 c3        1 MOL      0.376452
    131 C42        11.6010   -3.3850    1.3290 c3        1 MOL     -0.406605
    132 O20        10.1480   -3.0070   -0.5050 oh        1 MOL     -0.647098
    133 H60         7.9420   -1.8000   -0.0670 hn        1 MOL      0.364352
    134 H61         9.2070   -2.4700    2.6370 h1        1 MOL      0.042270
    135 H62         9.6430   -4.2680    1.0660 h1        1 MOL      0.001109
    136 H63         9.5630   -3.6070   -0.9940 ho        1 MOL      0.403304
    137 H64        11.4800   -3.3860    2.4070 hc        1 MOL      0.098787
    138 H65        12.0580   -4.2750    0.9000 hc        1 MOL      0.098787
    139 H66        12.1230   -2.4830    1.0380 hc        1 MOL      0.098787
    140 N12        10.1420   -0.1900    0.5030 n         1 MOL     -0.410491
    141 C43        10.6450    1.1770    0.4240 c3        1 MOL     -0.103085
    142 C44        10.0780    1.9600   -0.7640 c         1 MOL      0.610454
    143 O21         9.7700    1.3710   -1.7480 o         1 MOL     -0.513476
    144 C45        12.1910    1.0750    0.4260 c3        1 MOL     -0.263211
    145 C46        12.8540    0.3060   -0.7020 c3        1 MOL     -0.048052
    146 C47        14.4410    0.0530   -0.3700 c3        1 MOL      0.074155
    147 C48        15.0970   -0.4530   -1.6300 c3        1 MOL      0.035018
    148 N13        16.5570   -0.5790   -1.5290 n4        1 MOL     -0.200011
    149 H67         9.7740   -0.6080   -0.3380 hn        1 MOL      0.241700
    150 H68        10.3800    1.7290    1.3200 h1        1 MOL      0.118903
    151 H69        12.6240    0.6740    1.3450 hc        1 MOL      0.082629
    152 H70        12.4950    2.1250    0.3340 hc        1 MOL      0.082629
    153 H71        12.7320    0.7510   -1.6810 hc        1 MOL      0.065616
    154 H72        12.4370   -0.7090   -0.7490 hc        1 MOL      0.065616
    155 H73        14.4680   -0.8280    0.2790 hc        1 MOL      0.016184
    156 H74        14.9670    0.8960    0.0540 hc        1 MOL      0.016184
    157 H75        14.7930    0.3080   -2.3450 hx        1 MOL      0.058604
    158 H76        14.6460   -1.3910   -1.9490 hx        1 MOL      0.058604
    159 H77        17.0750   -0.7090   -2.3980 hn        1 MOL      0.232013
    160 H78        16.9410    0.1810   -1.0030 hn        1 MOL      0.232013
    161 H79        16.7560   -1.4640   -1.0840 hn        1 MOL      0.232013
    162 N14         9.8420    3.2740   -0.6220 n         1 MOL     -0.453349
    163 C49         9.3580    4.0660   -1.6770 c3        1 MOL      0.236672
    164 C50         7.9010    4.3340   -1.7130 c         1 MOL      0.413343
    165 O22         7.3610    4.3580   -2.7980 o         1 MOL     -0.540668
    166 C51        10.2260    5.3410   -1.8580 c3        1 MOL      0.061310
    167 C52         9.8760    6.5770   -0.9550 c3        1 MOL     -0.180027
    168 C53        10.9810    7.6610   -0.8660 c         1 MOL      0.698004
    169 O23        11.0420    8.3670    0.1520 o         1 MOL     -0.653416
    170 O24        11.6880    7.9090   -1.8740 o         1 MOL     -0.653416
    171 H80        10.1010    3.7660    0.2190 hn        1 MOL      0.306270
    172 H81         9.6100    3.4560   -2.5430 h1        1 MOL      0.027775
    173 H82        10.3420    5.5360   -2.9260 hc        1 MOL     -0.023111
    174 H83        11.2350    5.1520   -1.4990 hc        1 MOL     -0.023111
    175 H84         9.7530    6.2130    0.0710 hc        1 MOL      0.027488
    176 H85         8.9360    7.0260   -1.2910 hc        1 MOL      0.027488
    177 N15         7.0850    4.5530   -0.6460 n         1 MOL     -0.397610
    178 C54         7.3490    4.5540    0.8050 c3        1 MOL      0.096254
    179 H86         7.5530    5.5720    1.1360 h1        1 MOL      0.004230
    180 H87         6.4780    4.1690    1.3340 h1        1 MOL      0.004230
    181 H88         8.2120    3.9230    1.0180 h1        1 MOL      0.004230
    182 H89         6.1340    4.7060   -0.9540 hn        1 MOL      0.297269
    183 Ca1        -6.4460    4.5820    1.1620 Ca        1 MOL      1.741142
    184 O25        -7.1030    2.6950    3.0370 oh        1 MOL     -0.794405
    185 H90        -7.2700    2.8420    3.9640 ho        1 MOL      0.416242
    186 H91        -7.8220    2.1350    2.7480 ho        1 MOL      0.416242
@<TRIPOS>BOND
     1    1    2 1   
     2    1    4 1   
     3    1    5 1   
     4    1    6 1   
     5    2    3 2   
     6    2    7 1   
     7    7    8 1   
     8    7   15 1   
     9    8    9 1   
    10    8   11 1   
    11    8   16 1   
    12    9   10 2   
    13    9   19 1   
    14   11   12 1   
    15   11   17 1   
    16   11   18 1   
    17   12   13 1   
    18   12   14 1   
    19   19   20 1   
    20   19   28 1   
    21   20   21 1   
    22   20   23 1   
    23   20   29 1   
    24   21   22 2   
    25   21   41 1   
    26   23   24 1   
    27   23   30 1   
    28   23   31 1   
    29   24   25 1   
    30   24   32 1   
    31   24   33 1   
    32   25   26 1   
    33   25   34 1   
    34   25   35 1   
    35   26   27 1   
    36   26   36 1   
    37   26   37 1   
    38   27   38 1   
    39   27   39 1   
    40   27   40 1   
    41   41   42 1   
    42   41   49 1   
    43   42   43 1   
    44   42   45 1   
    45   42   50 1   
    46   43   44 2   
    47   43   53 1   
    48   45   46 1   
    49   45   51 1   
    50   45   52 1   
    51   46   47 1   
    52   46   48 1   
    53   53   54 1   
    54   53   57 1   
    55   54   55 1   
    56   54   58 1   
    57   54   59 1   
    58   55   56 2   
    59   55   60 1   
    60   60   61 1   
    61   60   68 1   
    62   61   62 1   
    63   61   64 1   
    64   61   69 1   
    65   62   63 2   
    66   62   72 1   
    67   64   65 1   
    68   64   70 1   
    69   64   71 1   
    70   65   66 1   
    71   65   67 1   
    72   72   73 1   
    73   72   76 1   
    74   73   74 1   
    75   73   77 1   
    76   73   78 1   
    77   74   75 2   
    78   74   79 1   
    79   79   80 1   
    80   79   86 1   
    81   80   81 1   
    82   80   83 1   
    83   80   87 1   
    84   81   82 2   
    85   81   93 1   
    86   83   84 1   
    87   83   85 1   
    88   83   88 1   
    89   84   90 1   
    90   84   91 1   
    91   84   92 1   
    92   85   89 1   
    93   93   94 1   
    94   93  101 1   
    95   94   95 1   
    96   94   97 1   
    97   94  102 1   
    98   95   96 2   
    99   95  112 1   
   100   97   98 1   
   101   97   99 1   
   102   97  103 1   
   103   98  100 1   
   104   98  104 1   
   105   98  105 1   
   106   99  106 1   
   107   99  107 1   
   108   99  108 1   
   109  100  109 1   
   110  100  110 1   
   111  100  111 1   
   112  112  113 1   
   113  112  119 1   
   114  113  114 1   
   115  113  116 1   
   116  113  120 1   
   117  114  115 2   
   118  114  126 1   
   119  116  117 1   
   120  116  118 1   
   121  116  121 1   
   122  117  123 1   
   123  117  124 1   
   124  117  125 1   
   125  118  122 1   
   126  126  127 1   
   127  126  133 1   
   128  127  128 1   
   129  127  130 1   
   130  127  134 1   
   131  128  129 2   
   132  128  140 1   
   133  130  131 1   
   134  130  132 1   
   135  130  135 1   
   136  131  137 1   
   137  131  138 1   
   138  131  139 1   
   139  132  136 1   
   140  140  141 1   
   141  140  149 1   
   142  141  142 1   
   143  141  144 1   
   144  141  150 1   
   145  142  143 2   
   146  142  162 1   
   147  144  145 1   
   148  144  151 1   
   149  144  152 1   
   150  145  146 1   
   151  145  153 1   
   152  145  154 1   
   153  146  147 1   
   154  146  155 1   
   155  146  156 1   
   156  147  148 1   
   157  147  157 1   
   158  147  158 1   
   159  148  159 1   
   160  148  160 1   
   161  148  161 1   
   162  162  163 1   
   163  162  171 1   
   164  163  164 1   
   165  163  166 1   
   166  163  172 1   
   167  164  165 2   
   168  164  177 1   
   169  166  167 1   
   170  166  173 1   
   171  166  174 1   
   172  167  168 1   
   173  167  175 1   
   174  167  176 1   
   175  168  169 1   
   176  168  170 1   
   177  177  178 1   
   178  177  182 1   
   179  178  179 1   
   180  178  180 1   
   181  178  181 1   
   182  184  185 1   
   183  184  186 1   
@<TRIPOS>SUBSTRUCTURE
     1 MOL         1 TEMP              0 ****  ****    0 ROOT
