@<TRIPOS>MOLECULE
MOL
  178   175     1     0     0
SMALL
resp


@<TRIPOS>ATOM
      1 C1          0.1140    6.6770   -1.4120 c3        1 MOL     -0.449789
      2 C2          1.5640    6.6230   -0.9180 c         1 MOL      0.729188
      3 O1          1.9100    7.1120    0.1790 o         1 MOL     -0.609964
      4 H1         -0.5100    6.0540   -0.7720 hc        1 MOL      0.112441
      5 H2         -0.2450    7.7060   -1.3780 hc        1 MOL      0.112441
      6 H3          0.0640    6.3090   -2.4370 hc        1 MOL      0.112441
      7 N1          2.4690    6.1730   -1.7580 n         1 MOL     -0.523596
      8 C3          3.8580    5.8880   -1.4060 c3        1 MOL      0.078495
      9 C4          3.9790    4.6800   -0.4050 c         1 MOL      0.582042
     10 O2          3.5000    3.5720   -0.5910 o         1 MOL     -0.544286
     11 C5          4.6560    5.5870   -2.7180 c3        1 MOL     -0.139310
     12 C6          6.1530    5.4780   -2.5000 c         1 MOL      0.727040
     13 O3          6.7550    6.4370   -2.0340 o         1 MOL     -0.739080
     14 O4          6.7090    4.3820   -2.7970 o         1 MOL     -0.739080
     15 H4          2.1710    5.9780   -2.6980 hn        1 MOL      0.283988
     16 H5          4.3220    6.7300   -0.8970 h1        1 MOL      0.048289
     17 H6          4.5810    6.4060   -3.4390 hc        1 MOL      0.001420
     18 H7          4.3380    4.6350   -3.1370 hc        1 MOL      0.001420
     19 N2          4.7700    4.8010    0.6450 n         1 MOL     -0.456976
     20 C7          5.0620    3.7650    1.6400 c3        1 MOL      0.150324
     21 C8          3.8620    3.2940    2.4980 c         1 MOL      0.609883
     22 O5          2.8620    4.0090    2.5150 o         1 MOL     -0.572039
     23 C9          6.1390    4.4350    2.5480 c3        1 MOL     -0.467961
     24 H8          5.2710    5.6730    0.7300 hn        1 MOL      0.296253
     25 H9          5.4420    2.8990    1.0880 h1        1 MOL      0.121086
     26 H10         5.7640    5.3530    2.9970 hc        1 MOL      0.128674
     27 H11         6.3890    3.6860    3.2980 hc        1 MOL      0.128674
     28 H12         7.0040    4.6800    1.9460 hc        1 MOL      0.128674
     29 N3          3.8360    2.1100    3.0510 n         1 MOL     -0.429596
     30 C10         4.8240    1.0490    3.1950 c3        1 MOL      0.012231
     31 C11         4.9400    0.1090    2.0370 c         1 MOL      0.278767
     32 O6          3.9500   -0.1430    1.3540 o         1 MOL     -0.423910
     33 C12         4.4420    0.2250    4.4960 c3        1 MOL     -0.054067
     34 C13         2.9860   -0.3390    4.5750 c         1 MOL      0.689671
     35 O7          1.9860    0.2010    4.0310 o         1 MOL     -0.685595
     36 O8          2.8070   -1.3950    5.2930 o         1 MOL     -0.685595
     37 H13         3.0070    1.8900    3.5680 hn        1 MOL      0.238191
     38 H14         5.8200    1.4510    3.3710 h1        1 MOL      0.049540
     39 H15         4.7650    0.7000    5.4240 hc        1 MOL      0.005196
     40 H16         5.1070   -0.6400    4.4030 hc        1 MOL      0.005196
     41 N4          6.1280   -0.5270    1.9080 n         1 MOL     -0.330040
     42 C14         6.5120   -1.3960    0.8220 c3        1 MOL     -0.050695
     43 C15         7.0200   -0.5360   -0.3670 c         1 MOL      0.527166
     44 O9          7.0330    0.7130   -0.3490 o         1 MOL     -0.491861
     45 H17         6.9040   -0.3860    2.5230 hn        1 MOL      0.283861
     46 H18         5.6640   -1.9750    0.4610 h1        1 MOL      0.060731
     47 H19         7.3330   -2.0520    1.1100 h1        1 MOL      0.060731
     48 N5          7.5710   -1.1720   -1.3990 n         1 MOL     -0.542297
     49 C16         7.8000   -2.5950   -1.6420 c3        1 MOL      0.249620
     50 C17         6.6270   -3.2600   -2.3680 c         1 MOL      0.417450
     51 O10         6.5980   -4.4930   -2.5650 o         1 MOL     -0.434552
     52 C18         9.2070   -2.8590   -2.1610 c3        1 MOL     -0.341637
     53 C19         9.5080   -4.3520   -1.9840 c         1 MOL      0.626991
     54 N6          9.5530   -4.8770   -0.8260 n         1 MOL     -0.786435
     55 O11         9.5310   -5.0330   -2.9870 o         1 MOL     -0.533806
     56 H20         7.7740   -0.5770   -2.1910 hn        1 MOL      0.320815
     57 H21         7.7890   -3.1860   -0.7330 h1        1 MOL     -0.003910
     58 H22         9.9220   -2.1960   -1.6590 hc        1 MOL      0.110031
     59 H23         9.2870   -2.5830   -3.2100 hc        1 MOL      0.110031
     60 H24         9.5760   -4.2730   -0.0250 hn        1 MOL      0.377012
     61 H25         9.7250   -5.8670   -0.7150 hn        1 MOL      0.377012
     62 N7          5.6610   -2.5130   -2.8470 n         1 MOL     -0.361572
     63 C20         4.4610   -3.0730   -3.5100 c3        1 MOL     -0.022928
     64 C21         3.4870   -3.8420   -2.5690 c         1 MOL      0.407275
     65 O12         3.2950   -5.0750   -2.7430 o         1 MOL     -0.519529
     66 H26         5.7110   -1.5060   -2.7820 hn        1 MOL      0.282459
     67 H27         4.7940   -3.7540   -4.2850 h1        1 MOL      0.075985
     68 H28         3.9850   -2.2640   -4.0590 h1        1 MOL      0.075985
     69 N8          2.9280   -3.1930   -1.5800 n         1 MOL     -0.196901
     70 C22         2.0550   -3.8190   -0.6400 c3        1 MOL     -0.010664
     71 C23         0.8000   -3.0800   -0.4170 c         1 MOL      0.519046
     72 O13         0.7110   -1.8620   -0.4740 o         1 MOL     -0.583816
     73 C24         2.7310   -3.9360    0.7810 c3        1 MOL      0.358938
     74 C25         3.9470   -4.7930    0.7480 c3        1 MOL     -0.472431
     75 O14         3.1410   -2.6350    1.1810 oh        1 MOL     -0.677194
     76 H29         3.0790   -2.1950   -1.5520 hn        1 MOL      0.233712
     77 H30         1.8000   -4.8240   -0.9800 h1        1 MOL      0.075566
     78 H31         2.0660   -4.4130    1.5000 h1        1 MOL      0.014524
     79 H32         3.6000   -2.7130    2.0240 ho        1 MOL      0.416964
     80 H33         3.9950   -5.1430    1.7780 hc        1 MOL      0.124299
     81 H34         3.9070   -5.6710    0.1060 hc        1 MOL      0.124299
     82 H35         4.7870   -4.1910    0.3970 hc        1 MOL      0.124299
     83 N9         -0.3370   -3.7270   -0.1260 n         1 MOL     -0.434248
     84 C26        -1.6500   -3.1050   -0.1810 c3        1 MOL     -0.136060
     85 C27        -2.4840   -3.1220    1.0700 c         1 MOL      0.513098
     86 O15        -2.7890   -4.1520    1.6440 o         1 MOL     -0.597246
     87 C28        -2.3780   -3.6410   -1.4720 c3        1 MOL      0.246432
     88 C29        -3.7720   -3.0950   -1.5550 c3        1 MOL      0.092773
     89 C30        -1.5320   -3.3120   -2.6570 c3        1 MOL     -0.492912
     90 C31        -4.5630   -3.7950   -2.7120 c3        1 MOL     -0.266745
     91 H36        -0.3960   -4.7310   -0.2340 hn        1 MOL      0.282726
     92 H37        -1.6190   -2.0480   -0.4720 h1        1 MOL      0.137381
     93 H38        -2.4860   -4.7300   -1.4450 hc        1 MOL     -0.001222
     94 H39        -3.7150   -2.0240   -1.7680 hc        1 MOL     -0.014249
     95 H40        -4.3520   -3.2050   -0.6410 hc        1 MOL     -0.014249
     96 H41        -2.0860   -3.6230   -3.5420 hc        1 MOL      0.118546
     97 H42        -1.2750   -2.2780   -2.9030 hc        1 MOL      0.118546
     98 H43        -0.5030   -3.6580   -2.5540 hc        1 MOL      0.118546
     99 H44        -4.1290   -3.5250   -3.6750 hc        1 MOL      0.049355
    100 H45        -4.3000   -4.8520   -2.6380 hc        1 MOL      0.049355
    101 H46        -5.6450   -3.6350   -2.6570 hc        1 MOL      0.049355
    102 N10        -3.0050   -1.9630    1.4870 n         1 MOL     -0.023122
    103 C32        -3.8400   -1.8660    2.6630 c3        1 MOL      0.147425
    104 C33        -5.3860   -1.8260    2.2500 c         1 MOL      0.237758
    105 O16        -6.2720   -2.0910    3.0940 o         1 MOL     -0.522711
    106 C34        -3.4280   -0.7270    3.6130 c3        1 MOL     -0.356236
    107 C35        -1.9270   -0.8500    4.0180 c         1 MOL      0.706367
    108 O17        -1.1060   -0.1490    3.3920 o         1 MOL     -0.672890
    109 O18        -1.5290   -1.6890    4.8170 o         1 MOL     -0.672890
    110 H47        -2.8620   -1.0960    0.9820 hn        1 MOL     -0.039105
    111 H48        -3.6990   -2.7660    3.2680 h1        1 MOL      0.075804
    112 H49        -4.0940   -0.7680    4.4630 hc        1 MOL      0.090715
    113 H50        -3.5640    0.2320    3.1200 hc        1 MOL      0.090715
    114 N11        -5.6510   -1.2400    1.0990 n         1 MOL     -0.131274
    115 C36        -6.9770   -0.9360    0.7200 c3        1 MOL      0.244682
    116 C37        -6.9880    0.4290    0.0300 c         1 MOL      0.188988
    117 O19        -7.1530    0.4180   -1.1820 o         1 MOL     -0.415380
    118 C38        -7.5630   -2.0550   -0.1080 c3        1 MOL     -0.354157
    119 C39        -9.0760   -1.8930   -0.3010 ca        1 MOL      0.289240
    120 C40        -9.9790   -1.9040    0.8100 ca        1 MOL     -0.276857
    121 C41        -9.5520   -1.8750   -1.5880 ca        1 MOL     -0.276857
    122 C42       -11.3420   -1.6870    0.5590 ca        1 MOL     -0.052314
    123 C43       -10.9140   -1.5870   -1.8310 ca        1 MOL     -0.052314
    124 C44       -11.8080   -1.5700   -0.7800 ca        1 MOL     -0.193812
    125 H51        -4.8590   -0.7810    0.6580 hn        1 MOL      0.164934
    126 H52        -7.5350   -0.8470    1.6540 h1        1 MOL      0.015392
    127 H53        -7.4800   -2.9750    0.4640 hc        1 MOL      0.122611
    128 H54        -7.0540   -2.1560   -1.0630 hc        1 MOL      0.122611
    129 H55        -9.6130   -1.8660    1.8230 ha        1 MOL      0.150065
    130 H56        -8.8830   -1.9260   -2.4340 ha        1 MOL      0.150065
    131 H57       -12.0860   -1.6120    1.3450 ha        1 MOL      0.091300
    132 H58       -11.3040   -1.4490   -2.8230 ha        1 MOL      0.091300
    133 H59       -12.8600   -1.4110   -0.9760 ha        1 MOL      0.105610
    134 N12        -6.7000    1.5450    0.7450 n         1 MOL     -0.048700
    135 C45        -6.6310    2.8840    0.1360 c3        1 MOL      0.049862
    136 C46        -5.8560    3.1160   -1.1760 c         1 MOL      0.184519
    137 O20        -6.1200    4.0330   -2.0380 o         1 MOL     -0.470681
    138 C47        -5.9510    3.7270    1.2620 c3        1 MOL     -0.023016
    139 C48        -6.3610    3.0610    2.5420 c3        1 MOL     -0.074179
    140 C49        -6.4400    1.6070    2.1640 c3        1 MOL     -0.094054
    141 H60        -7.6170    3.3340    0.0200 h1        1 MOL      0.057161
    142 H61        -4.8750    3.5880    1.2060 hc        1 MOL      0.046552
    143 H62        -6.2750    4.7650    1.1650 hc        1 MOL      0.046552
    144 H63        -5.6280    3.2480    3.3290 hc        1 MOL      0.036487
    145 H64        -7.3240    3.3970    2.9280 hc        1 MOL      0.036487
    146 H65        -5.4380    1.1650    2.2220 h1        1 MOL      0.092511
    147 H66        -7.1280    1.0240    2.7670 h1        1 MOL      0.092511
    148 N13        -4.8670    2.2950   -1.4090 n         1 MOL     -0.100531
    149 C50        -4.1870    2.1990   -2.7140 c3        1 MOL     -0.250170
    150 C51        -5.2210    2.0530   -3.8630 c         1 MOL      0.463928
    151 O21        -5.2000    2.8170   -4.8480 o         1 MOL     -0.546642
    152 C52        -3.0510    1.2060   -2.8650 c3        1 MOL      0.167962
    153 C53        -1.9900    1.1940   -1.7360 c3        1 MOL     -0.315437
    154 C54        -2.3930    0.6380   -0.3970 c         1 MOL      0.715933
    155 O22        -1.5040    0.5900    0.5490 o         1 MOL     -0.665037
    156 O23        -3.5480    0.2190   -0.1980 o         1 MOL     -0.665037
    157 H67        -4.9560    1.4680   -0.8300 hn        1 MOL      0.305775
    158 H68        -3.7170    3.1720   -2.8970 h1        1 MOL      0.130570
    159 H69        -2.5480    1.2900   -3.8270 hc        1 MOL     -0.018007
    160 H70        -3.6510    0.2900   -2.8380 hc        1 MOL     -0.018007
    161 H71        -1.7470    2.2560   -1.6470 hc        1 MOL      0.088413
    162 H72        -1.1490    0.6160   -2.1140 hc        1 MOL      0.088413
    163 N14        -6.1250    1.1000   -3.7330 n         1 MOL     -0.107491
    164 C55        -7.1590    0.7600   -4.7740 c3        1 MOL     -0.402864
    165 H73        -7.7990   -0.0410   -4.4010 h1        1 MOL      0.140201
    166 H74        -7.7660    1.6400   -4.9870 h1        1 MOL      0.140201
    167 H75        -6.6620    0.4320   -5.6870 h1        1 MOL      0.140201
    168 H76        -6.1620    0.6350   -2.8340 hn        1 MOL      0.181213
    169 Ca1         0.7990   -0.0810    1.6970 Ca        1 MOL      1.762014
    170 O24         1.7500    1.3310   -0.4000 oh        1 MOL     -0.884456
    171 H77         1.9640    2.2510   -0.6020 ho        1 MOL      0.419276
    172 H78         2.3270    0.8260   -0.9670 ho        1 MOL      0.419276
    173 O25         0.5390    2.4890    2.4850 oh        1 MOL     -0.884456
    174 H79        -0.0600    2.8040    3.1660 ho        1 MOL      0.419276
    175 H80         1.1800    3.1950    2.3820 ho        1 MOL      0.419276
    176 O26         0.5690   -2.3560    2.9630 oh        1 MOL     -0.884456
    177 H81         0.2150   -2.1610    3.8290 ho        1 MOL      0.419276
    178 H82         1.2170   -3.0390    3.1180 ho        1 MOL      0.419276
@<TRIPOS>BOND
     1    1    2 1   
     2    1    4 1   
     3    1    5 1   
     4    1    6 1   
     5    2    3 2   
     6    2    7 1   
     7    7    8 1   
     8    7   15 1   
     9    8    9 1   
    10    8   11 1   
    11    8   16 1   
    12    9   10 2   
    13    9   19 1   
    14   11   12 1   
    15   11   17 1   
    16   11   18 1   
    17   12   13 1   
    18   12   14 1   
    19   19   20 1   
    20   19   24 1   
    21   20   21 1   
    22   20   23 1   
    23   20   25 1   
    24   21   22 2   
    25   21   29 1   
    26   23   26 1   
    27   23   27 1   
    28   23   28 1   
    29   29   30 1   
    30   29   37 1   
    31   30   31 1   
    32   30   33 1   
    33   30   38 1   
    34   31   32 2   
    35   31   41 1   
    36   33   34 1   
    37   33   39 1   
    38   33   40 1   
    39   34   35 1   
    40   34   36 1   
    41   41   42 1   
    42   41   45 1   
    43   42   43 1   
    44   42   46 1   
    45   42   47 1   
    46   43   44 2   
    47   43   48 1   
    48   48   49 1   
    49   48   56 1   
    50   49   50 1   
    51   49   52 1   
    52   49   57 1   
    53   50   51 2   
    54   50   62 1   
    55   52   53 1   
    56   52   58 1   
    57   52   59 1   
    58   53   54 1   
    59   53   55 2   
    60   54   60 1   
    61   54   61 1   
    62   62   63 1   
    63   62   66 1   
    64   63   64 1   
    65   63   67 1   
    66   63   68 1   
    67   64   65 2   
    68   64   69 1   
    69   69   70 1   
    70   69   76 1   
    71   70   71 1   
    72   70   73 1   
    73   70   77 1   
    74   71   72 2   
    75   71   83 1   
    76   73   74 1   
    77   73   75 1   
    78   73   78 1   
    79   74   80 1   
    80   74   81 1   
    81   74   82 1   
    82   75   79 1   
    83   83   84 1   
    84   83   91 1   
    85   84   85 1   
    86   84   87 1   
    87   84   92 1   
    88   85   86 2   
    89   85  102 1   
    90   87   88 1   
    91   87   89 1   
    92   87   93 1   
    93   88   90 1   
    94   88   94 1   
    95   88   95 1   
    96   89   96 1   
    97   89   97 1   
    98   89   98 1   
    99   90   99 1   
   100   90  100 1   
   101   90  101 1   
   102  102  103 1   
   103  102  110 1   
   104  103  104 1   
   105  103  106 1   
   106  103  111 1   
   107  104  105 2   
   108  104  114 1   
   109  106  107 1   
   110  106  112 1   
   111  106  113 1   
   112  107  108 1   
   113  107  109 1   
   114  114  115 1   
   115  114  125 1   
   116  115  116 1   
   117  115  118 1   
   118  115  126 1   
   119  116  117 2   
   120  116  134 1   
   121  118  119 1   
   122  118  127 1   
   123  118  128 1   
   124  119  120 ar  
   125  119  121 ar  
   126  120  122 ar  
   127  120  129 1   
   128  121  123 ar  
   129  121  130 1   
   130  122  124 ar  
   131  122  131 1   
   132  123  124 ar  
   133  123  132 1   
   134  124  133 1   
   135  134  135 1   
   136  134  140 1   
   137  135  136 1   
   138  135  138 1   
   139  135  141 1   
   140  136  137 2   
   141  136  148 1   
   142  138  139 1   
   143  138  142 1   
   144  138  143 1   
   145  139  140 1   
   146  139  144 1   
   147  139  145 1   
   148  140  146 1   
   149  140  147 1   
   150  148  149 1   
   151  148  157 1   
   152  149  150 1   
   153  149  152 1   
   154  149  158 1   
   155  150  151 2   
   156  150  163 1   
   157  152  153 1   
   158  152  159 1   
   159  152  160 1   
   160  153  154 1   
   161  153  161 1   
   162  153  162 1   
   163  154  155 1   
   164  154  156 1   
   165  163  164 1   
   166  163  168 1   
   167  164  165 1   
   168  164  166 1   
   169  164  167 1   
   170  170  171 1   
   171  170  172 1   
   172  173  174 1   
   173  173  175 1   
   174  176  177 1   
   175  176  178 1   
@<TRIPOS>SUBSTRUCTURE
     1 MOL         1 TEMP              0 ****  ****    0 ROOT
