@<TRIPOS>MOLECULE
MOL
  186   183     1     0     0
SMALL
resp


@<TRIPOS>ATOM
      1 C1         12.2610    5.6080   -2.0670 c3        1 MOL     -0.283856
      2 C2         12.0700    4.2590   -1.3190 c         1 MOL      0.673325
      3 O1         13.0920    3.6240   -1.0420 o         1 MOL     -0.560192
      4 H1         11.5120    6.3220   -1.7250 hc        1 MOL      0.066546
      5 H2         13.2570    6.0000   -1.8620 hc        1 MOL      0.066546
      6 H3         12.1470    5.4490   -3.1400 hc        1 MOL      0.066546
      7 N1         10.8470    3.9680   -0.9800 n         1 MOL     -0.218156
      8 C3         10.5700    2.8640   -0.0800 c3        1 MOL     -1.120395
      9 C4          9.1670    2.2810   -0.3760 c         1 MOL      1.164479
     10 O2          8.2100    2.9970   -0.6990 o         1 MOL     -0.750309
     11 C5         10.8920    3.3070    1.3770 c3        1 MOL      0.051794
     12 C6         10.0750    4.3560    2.0550 c         1 MOL      0.716402
     13 O3          8.9970    4.6790    1.5020 o         1 MOL     -0.710833
     14 O4         10.4590    4.7120    3.1940 o         1 MOL     -0.710833
     15 H4         10.0520    4.4470   -1.3880 hn        1 MOL      0.229364
     16 H5         11.2690    2.0670   -0.3270 h1        1 MOL      0.313241
     17 H6         11.9180    3.6470    1.3400 hc        1 MOL      0.114515
     18 H7         10.9060    2.4590    2.0660 hc        1 MOL      0.114515
     19 N2          8.9830    0.9580   -0.3370 n         1 MOL     -0.577361
     20 C7          7.7690    0.3090   -0.7310 c3        1 MOL     -0.062865
     21 C8          6.9050   -0.0450    0.4920 c         1 MOL      0.580019
     22 O5          7.3720   -0.7930    1.4010 o         1 MOL     -0.521925
     23 C9          8.1460   -0.8230   -1.6780 c3        1 MOL     -0.264363
     24 C10         6.8380   -1.5160   -2.2040 c3        1 MOL      0.047898
     25 C11         7.0860   -2.5350   -3.3090 c3        1 MOL     -0.133132
     26 C12         7.6140   -1.7730   -4.5970 c3        1 MOL      0.128074
     27 N3          7.9250   -2.6470   -5.6940 n4        1 MOL     -0.241605
     28 H8          9.6580    0.3210    0.0650 hn        1 MOL      0.346908
     29 H9          7.1290    1.0000   -1.2640 h1        1 MOL      0.129251
     30 H10         8.8340   -1.5480   -1.2430 hc        1 MOL      0.117243
     31 H11         8.6110   -0.3800   -2.5550 hc        1 MOL      0.117243
     32 H12         6.0630   -0.8540   -2.5950 hc        1 MOL      0.052991
     33 H13         6.3550   -2.0540   -1.3810 hc        1 MOL      0.052991
     34 H14         6.1630   -3.0570   -3.5650 hc        1 MOL      0.070391
     35 H15         7.7350   -3.3490   -2.9740 hc        1 MOL      0.070391
     36 H16         8.5200   -1.2140   -4.3760 hx        1 MOL      0.022199
     37 H17         6.8590   -1.0880   -4.9660 hx        1 MOL      0.022199
     38 H18         7.8050   -2.1170   -6.5490 hn        1 MOL      0.241451
     39 H19         8.8670   -2.9980   -5.6090 hn        1 MOL      0.241451
     40 H20         7.3460   -3.4770   -5.7330 hn        1 MOL      0.241451
     41 N4          5.6480    0.3220    0.4920 n         1 MOL     -0.442562
     42 C13         4.6190    0.0260    1.5280 c3        1 MOL      0.112259
     43 C14         3.2200    0.0610    0.8360 c         1 MOL      0.520555
     44 O6          3.1300    0.4230   -0.3300 o         1 MOL     -0.519892
     45 C15         4.6540    1.1120    2.6300 c3        1 MOL      0.042766
     46 C16         5.0480    2.5490    2.2820 c         1 MOL      0.774144
     47 O7          4.3710    3.1670    1.4190 o         1 MOL     -0.812005
     48 O8          6.1610    3.0680    2.6330 o         1 MOL     -0.812005
     49 H21         5.2120    0.6540   -0.3630 hn        1 MOL      0.170816
     50 H22         4.8250   -0.9580    1.9620 h1        1 MOL      0.067099
     51 H23         5.3640    0.7290    3.3550 hc        1 MOL      0.009962
     52 H24         3.6660    1.2030    3.0790 hc        1 MOL      0.009962
     53 N5          2.1240   -0.4590    1.4150 n         1 MOL     -0.431195
     54 C17         1.9660   -1.2550    2.6250 c3        1 MOL     -0.011834
     55 C18         2.4450   -2.6930    2.4460 c         1 MOL      0.601430
     56 O9          2.7730   -3.1440    1.3700 o         1 MOL     -0.569256
     57 H25         1.3330   -0.4350    0.7920 hn        1 MOL      0.308338
     58 H26         0.9510   -1.4620    2.9880 h1        1 MOL      0.050650
     59 H27         2.6070   -0.8560    3.4030 h1        1 MOL      0.050650
     60 N6          2.5260   -3.4460    3.4700 n         1 MOL     -0.333638
     61 C19         3.2120   -4.7410    3.4730 c3        1 MOL     -0.088406
     62 C20         2.5900   -5.7920    2.5070 c         1 MOL      0.467034
     63 O10         3.2140   -6.8160    2.2480 o         1 MOL     -0.533560
     64 C21         3.2940   -5.3370    4.9170 c3        1 MOL     -0.164008
     65 C22         2.0270   -5.3650    5.7980 c         1 MOL      0.741304
     66 O11         2.2150   -5.5790    6.9920 o         1 MOL     -0.653888
     67 O12         0.8520   -5.3730    5.3500 o         1 MOL     -0.653888
     68 H28         2.1920   -2.9720    4.2890 hn        1 MOL      0.223175
     69 H29         4.2310   -4.6030    3.1150 h1        1 MOL      0.110683
     70 H30         4.0380   -4.7280    5.4360 hc        1 MOL      0.064013
     71 H31         3.7070   -6.3470    4.9060 hc        1 MOL      0.064013
     72 N7          1.4050   -5.5480    1.9310 n         1 MOL     -0.221185
     73 C23         0.6990   -6.4410    1.0050 c3        1 MOL      0.082302
     74 C24         0.3900   -5.7410   -0.3190 c         1 MOL      0.380557
     75 O13        -0.4340   -6.2820   -1.1160 o         1 MOL     -0.567223
     76 H32         0.8820   -4.7040    2.1030 hn        1 MOL      0.154784
     77 H33        -0.2310   -6.7880    1.4650 h1        1 MOL      0.054485
     78 H34         1.2760   -7.3520    0.8310 h1        1 MOL      0.054485
     79 N8          0.9230   -4.5730   -0.6040 n         1 MOL     -0.078926
     80 C25         0.5920   -3.6340   -1.7860 c3        1 MOL     -0.211635
     81 C26         0.2560   -2.2460   -1.2820 c         1 MOL      0.356476
     82 O14         0.2290   -2.0080   -0.0290 o         1 MOL     -0.389562
     83 C27         1.8860   -3.6280   -2.7320 c3        1 MOL      0.256629
     84 C28         3.1020   -3.0880   -2.1610 c3        1 MOL     -0.232265
     85 O15         2.3260   -4.9770   -3.0390 oh        1 MOL     -0.580256
     86 H35         1.5380   -4.2010    0.1020 hn        1 MOL      0.171460
     87 H36        -0.2680   -4.0200   -2.3200 h1        1 MOL      0.160391
     88 H37         1.6910   -3.1270   -3.6740 h1        1 MOL     -0.002700
     89 H38         2.4100   -5.0720   -3.9890 ho        1 MOL      0.382710
     90 H39         3.9010   -3.2980   -2.8860 hc        1 MOL      0.059403
     91 H40         3.1320   -2.0360   -1.9000 hc        1 MOL      0.059403
     92 H41         3.2080   -3.6450   -1.2330 hc        1 MOL      0.059403
     93 N9         -0.0910   -1.2560   -2.1190 n         1 MOL     -0.092634
     94 C29        -0.3280    0.0940   -1.6620 c3        1 MOL     -0.394018
     95 C30        -1.6220    0.1480   -0.8680 c         1 MOL      0.628726
     96 O16        -1.7660    0.8750    0.1210 o         1 MOL     -0.546892
     97 C31        -0.1190    1.2110   -2.7500 c3        1 MOL      0.236005
     98 C32         1.2050    0.9780   -3.5450 c3        1 MOL      0.007967
     99 C33        -0.2040    2.6710   -2.1290 c3        1 MOL     -0.296585
    100 C34         1.0910    1.6390   -4.8830 c3        1 MOL     -0.024933
    101 H42        -0.2220   -1.4770   -3.0950 hn        1 MOL      0.204489
    102 H43         0.4120    0.2680   -0.8790 h1        1 MOL      0.135663
    103 H44        -0.8900    1.1770   -3.5200 hc        1 MOL      0.009925
    104 H45         1.5110   -0.0500   -3.7310 hc        1 MOL     -0.021340
    105 H46         2.0550    1.3640   -2.9930 hc        1 MOL     -0.021340
    106 H47        -0.1210    3.3230   -2.9990 hc        1 MOL      0.085883
    107 H48        -1.1940    2.9270   -1.7670 hc        1 MOL      0.085883
    108 H49         0.6460    2.8140   -1.4560 hc        1 MOL      0.085883
    109 H50         2.0010    1.5540   -5.4800 hc        1 MOL     -0.001645
    110 H51         0.2930    1.2610   -5.5080 hc        1 MOL     -0.001645
    111 H52         0.9370    2.7120   -4.7500 hc        1 MOL     -0.001645
    112 N10        -2.4910   -0.7400   -1.2420 n         1 MOL     -0.462651
    113 C35        -3.6670   -1.1640   -0.5170 c3        1 MOL     -0.058766
    114 C36        -4.7340   -1.5880   -1.6160 c         1 MOL      0.718743
    115 O17        -4.3190   -1.9850   -2.7140 o         1 MOL     -0.542228
    116 C37        -3.3300   -2.4110    0.4020 c3        1 MOL      0.321723
    117 C38        -4.4420   -3.0300    1.1700 c3        1 MOL     -0.432546
    118 O18        -2.6550   -3.5110   -0.1590 oh        1 MOL     -0.608671
    119 H53        -2.2530   -1.1930   -2.1170 hn        1 MOL      0.256817
    120 H54        -4.0960   -0.3870    0.1130 h1        1 MOL      0.088569
    121 H55        -2.4940   -2.0710    1.0280 h1        1 MOL      0.043828
    122 H56        -2.7020   -4.2150    0.4910 ho        1 MOL      0.418349
    123 H57        -5.0060   -2.3030    1.7600 hc        1 MOL      0.107934
    124 H58        -5.1720   -3.4290    0.4690 hc        1 MOL      0.107934
    125 H59        -4.0870   -3.7980    1.8550 hc        1 MOL      0.107934
    126 N11        -6.0380   -1.5190   -1.3800 n         1 MOL     -0.682902
    127 C39        -7.2150   -1.9400   -2.1620 c3        1 MOL      0.040295
    128 C40        -8.4540   -1.0820   -2.0520 c         1 MOL      0.651848
    129 O19        -9.2420   -1.0930   -3.0620 o         1 MOL     -0.568729
    130 C41        -7.5800   -3.4010   -1.7610 c3        1 MOL      0.391122
    131 C42        -8.6310   -4.0790   -2.6020 c3        1 MOL     -0.480369
    132 O20        -7.9610   -3.3980   -0.4130 oh        1 MOL     -0.631443
    133 H60        -6.2020   -1.2270   -0.4240 hn        1 MOL      0.318934
    134 H61        -6.8630   -1.9450   -3.1930 h1        1 MOL      0.101641
    135 H62        -6.6750   -3.9800   -1.9200 h1        1 MOL      0.013577
    136 H63        -7.6160   -4.2070   -0.0320 ho        1 MOL      0.403207
    137 H64        -9.6210   -3.8320   -2.2170 hc        1 MOL      0.124702
    138 H65        -8.4980   -3.7960   -3.6400 hc        1 MOL      0.124702
    139 H66        -8.5360   -5.1570   -2.4470 hc        1 MOL      0.124702
    140 N12        -8.5980   -0.2510   -0.9970 n         1 MOL     -0.496646
    141 C43        -9.7120    0.6720   -0.7710 c3        1 MOL     -0.059674
    142 C44        -9.4610    1.6750    0.4110 c         1 MOL      0.730540
    143 O21        -9.2080    1.1980    1.5120 o         1 MOL     -0.542811
    144 C45       -11.0000   -0.1440   -0.5570 c3        1 MOL     -0.080722
    145 C46       -12.2300    0.7440   -0.3040 c3        1 MOL     -0.049237
    146 C47       -13.4170   -0.1770   -0.2720 c3        1 MOL      0.032340
    147 C48       -14.5540    0.6300    0.3810 c3        1 MOL      0.019544
    148 N13       -15.7230   -0.2030    0.6740 n4        1 MOL     -0.209473
    149 H67        -7.9610   -0.3650   -0.2290 hn        1 MOL      0.292286
    150 H68        -9.8650    1.3420   -1.6140 h1        1 MOL      0.093565
    151 H69       -10.8500   -0.7920    0.3060 hc        1 MOL      0.065132
    152 H70       -11.0410   -0.8510   -1.3870 hc        1 MOL      0.065132
    153 H71       -12.3510    1.4580   -1.1080 hc        1 MOL      0.041945
    154 H72       -12.1620    1.2700    0.6500 hc        1 MOL      0.041945
    155 H73       -13.1660   -0.9930    0.4010 hc        1 MOL      0.022274
    156 H74       -13.6580   -0.5560   -1.2710 hc        1 MOL      0.022274
    157 H75       -14.7350    1.3950   -0.3650 hx        1 MOL      0.076821
    158 H76       -14.3650    1.0650    1.3610 hx        1 MOL      0.076821
    159 H77       -16.3360    0.2450    1.3370 hn        1 MOL      0.232270
    160 H78       -16.2480   -0.4070   -0.1580 hn        1 MOL      0.232270
    161 H79       -15.4500   -1.0950    1.0750 hn        1 MOL      0.232270
    162 N14        -9.5220    2.9730    0.1990 n         1 MOL     -0.811357
    163 C49        -9.0120    3.9850    1.1250 c3        1 MOL      0.651781
    164 C50        -7.5230    3.8030    1.4580 c         1 MOL      0.281884
    165 O22        -7.3260    3.4670    2.6150 o         1 MOL     -0.527824
    166 C51        -9.5190    5.4340    0.8620 c3        1 MOL     -0.173505
    167 C52        -9.0960    6.4400    1.9230 c3        1 MOL     -0.157061
    168 C53        -9.3120    7.9090    1.5490 c         1 MOL      0.705349
    169 O23       -10.3780    8.2290    0.9350 o         1 MOL     -0.657483
    170 O24        -8.4530    8.7910    1.8380 o         1 MOL     -0.657483
    171 H80        -9.8730    3.2760   -0.7000 hn        1 MOL      0.296540
    172 H81        -9.4920    3.7980    2.0890 h1        1 MOL     -0.030922
    173 H82       -10.6050    5.3470    0.9620 hc        1 MOL      0.029434
    174 H83        -9.2290    5.8000   -0.1220 hc        1 MOL      0.029434
    175 H84        -8.0530    6.3100    2.2200 hc        1 MOL      0.036341
    176 H85        -9.6900    6.2520    2.8230 hc        1 MOL      0.036341
    177 N15        -6.5520    3.9660    0.5890 n         1 MOL     -0.306440
    178 C54        -6.6350    4.6190   -0.7420 c3        1 MOL     -0.101146
    179 H86        -7.6460    4.9900   -0.9020 h1        1 MOL      0.073068
    180 H87        -5.9320    5.4520   -0.7830 h1        1 MOL      0.073068
    181 H88        -6.3870    3.8950   -1.5190 h1        1 MOL      0.073068
    182 H89        -5.6190    3.8040    0.9630 hn        1 MOL      0.291168
    183 Ca1         6.4220    4.6900    0.5920 Ca        1 MOL      1.728632
    184 O25         4.8620    3.1210   -1.1770 oh        1 MOL     -0.831381
    185 H90         4.1970    2.9540   -0.5030 ho        1 MOL      0.409287
    186 H91         4.7160    2.4390   -1.8260 ho        1 MOL      0.409287
@<TRIPOS>BOND
     1    1    2 1   
     2    1    4 1   
     3    1    5 1   
     4    1    6 1   
     5    2    3 2   
     6    2    7 1   
     7    7    8 1   
     8    7   15 1   
     9    8    9 1   
    10    8   11 1   
    11    8   16 1   
    12    9   10 2   
    13    9   19 1   
    14   11   12 1   
    15   11   17 1   
    16   11   18 1   
    17   12   13 1   
    18   12   14 1   
    19   19   20 1   
    20   19   28 1   
    21   20   21 1   
    22   20   23 1   
    23   20   29 1   
    24   21   22 2   
    25   21   41 1   
    26   23   24 1   
    27   23   30 1   
    28   23   31 1   
    29   24   25 1   
    30   24   32 1   
    31   24   33 1   
    32   25   26 1   
    33   25   34 1   
    34   25   35 1   
    35   26   27 1   
    36   26   36 1   
    37   26   37 1   
    38   27   38 1   
    39   27   39 1   
    40   27   40 1   
    41   41   42 1   
    42   41   49 1   
    43   42   43 1   
    44   42   45 1   
    45   42   50 1   
    46   43   44 2   
    47   43   53 1   
    48   45   46 1   
    49   45   51 1   
    50   45   52 1   
    51   46   47 1   
    52   46   48 1   
    53   53   54 1   
    54   53   57 1   
    55   54   55 1   
    56   54   58 1   
    57   54   59 1   
    58   55   56 2   
    59   55   60 1   
    60   60   61 1   
    61   60   68 1   
    62   61   62 1   
    63   61   64 1   
    64   61   69 1   
    65   62   63 2   
    66   62   72 1   
    67   64   65 1   
    68   64   70 1   
    69   64   71 1   
    70   65   66 1   
    71   65   67 1   
    72   72   73 1   
    73   72   76 1   
    74   73   74 1   
    75   73   77 1   
    76   73   78 1   
    77   74   75 2   
    78   74   79 1   
    79   79   80 1   
    80   79   86 1   
    81   80   81 1   
    82   80   83 1   
    83   80   87 1   
    84   81   82 2   
    85   81   93 1   
    86   83   84 1   
    87   83   85 1   
    88   83   88 1   
    89   84   90 1   
    90   84   91 1   
    91   84   92 1   
    92   85   89 1   
    93   93   94 1   
    94   93  101 1   
    95   94   95 1   
    96   94   97 1   
    97   94  102 1   
    98   95   96 2   
    99   95  112 1   
   100   97   98 1   
   101   97   99 1   
   102   97  103 1   
   103   98  100 1   
   104   98  104 1   
   105   98  105 1   
   106   99  106 1   
   107   99  107 1   
   108   99  108 1   
   109  100  109 1   
   110  100  110 1   
   111  100  111 1   
   112  112  113 1   
   113  112  119 1   
   114  113  114 1   
   115  113  116 1   
   116  113  120 1   
   117  114  115 2   
   118  114  126 1   
   119  116  117 1   
   120  116  118 1   
   121  116  121 1   
   122  117  123 1   
   123  117  124 1   
   124  117  125 1   
   125  118  122 1   
   126  126  127 1   
   127  126  133 1   
   128  127  128 1   
   129  127  130 1   
   130  127  134 1   
   131  128  129 2   
   132  128  140 1   
   133  130  131 1   
   134  130  132 1   
   135  130  135 1   
   136  131  137 1   
   137  131  138 1   
   138  131  139 1   
   139  132  136 1   
   140  140  141 1   
   141  140  149 1   
   142  141  142 1   
   143  141  144 1   
   144  141  150 1   
   145  142  143 2   
   146  142  162 1   
   147  144  145 1   
   148  144  151 1   
   149  144  152 1   
   150  145  146 1   
   151  145  153 1   
   152  145  154 1   
   153  146  147 1   
   154  146  155 1   
   155  146  156 1   
   156  147  148 1   
   157  147  157 1   
   158  147  158 1   
   159  148  159 1   
   160  148  160 1   
   161  148  161 1   
   162  162  163 1   
   163  162  171 1   
   164  163  164 1   
   165  163  166 1   
   166  163  172 1   
   167  164  165 2   
   168  164  177 1   
   169  166  167 1   
   170  166  173 1   
   171  166  174 1   
   172  167  168 1   
   173  167  175 1   
   174  167  176 1   
   175  168  169 1   
   176  168  170 1   
   177  177  178 1   
   178  177  182 1   
   179  178  179 1   
   180  178  180 1   
   181  178  181 1   
   182  184  185 1   
   183  184  186 1   
@<TRIPOS>SUBSTRUCTURE
     1 MOL         1 TEMP              0 ****  ****    0 ROOT
