@<TRIPOS>MOLECULE
MOL
  184   179     1     0     0
SMALL
resp


@<TRIPOS>ATOM
      1 C1         -2.9970   -1.1240   -4.3820 c3        1 MOL     -0.259115
      2 C2         -4.2010   -0.1820   -4.0520 c         1 MOL      0.594414
      3 O1         -3.9560    0.9200   -3.6330 o         1 MOL     -0.544402
      4 H1         -3.2810   -1.8110   -5.1800 hc        1 MOL      0.050890
      5 H2         -2.1450   -0.5250   -4.7050 hc        1 MOL      0.050890
      6 H3         -2.7250   -1.6920   -3.4930 hc        1 MOL      0.050890
      7 N1         -5.4850   -0.6890   -4.1380 n         1 MOL     -0.416312
      8 C3         -6.7400    0.0050   -3.8410 c3        1 MOL     -0.103767
      9 C4         -7.0260   -0.0480   -2.3030 c         1 MOL      0.495753
     10 O2         -7.5840   -1.0350   -1.7790 o         1 MOL     -0.520306
     11 C5         -7.7950   -0.6180   -4.7320 c3        1 MOL     -0.260530
     12 C6         -9.1060    0.1270   -4.5030 c         1 MOL      0.709104
     13 O3        -10.0200   -0.2130   -3.7270 o         1 MOL     -0.726898
     14 O4         -9.2330    1.1840   -5.2370 o         1 MOL     -0.726898
     15 H4         -5.5820   -1.6190   -4.5110 hn        1 MOL      0.256322
     16 H5         -6.5580    1.0250   -4.1960 h1        1 MOL      0.104972
     17 H6         -7.8970   -1.6910   -4.5560 hc        1 MOL      0.059640
     18 H7         -7.4740   -0.5230   -5.7660 hc        1 MOL      0.059640
     19 N2         -6.6930    0.9690   -1.5260 n         1 MOL     -0.154311
     20 C7         -6.9060    1.0690   -0.0480 c3        1 MOL     -0.085038
     21 C8         -5.7610    0.4070    0.6800 c         1 MOL      0.410239
     22 O5         -4.5850    0.7290    0.5790 o         1 MOL     -0.451624
     23 C9         -7.2370    2.5340    0.3530 c3        1 MOL     -0.324007
     24 H8         -6.5030    1.8630   -1.9670 hn        1 MOL      0.209292
     25 H9         -7.7870    0.4430    0.1100 h1        1 MOL      0.120266
     26 H10        -8.0440    2.9300   -0.2730 hc        1 MOL      0.101016
     27 H11        -7.5140    2.7330    1.3840 hc        1 MOL      0.101016
     28 H12        -6.3660    3.1480    0.1690 hc        1 MOL      0.101016
     29 N3         -5.9940   -0.7670    1.3180 n         1 MOL     -0.101868
     30 C10        -4.9580   -1.6900    1.8590 c3        1 MOL     -0.320327
     31 C11        -4.2540   -1.2550    3.1680 c         1 MOL      0.443429
     32 O6         -3.1080   -1.5600    3.3840 o         1 MOL     -0.347401
     33 C12        -5.7080   -3.0180    2.1150 c3        1 MOL      0.159381
     34 C13        -4.7950   -4.1540    2.6380 c         1 MOL      0.529130
     35 O7         -3.9830   -4.7000    1.7960 o         1 MOL     -0.661693
     36 O8         -4.9380   -4.5900    3.8030 o         1 MOL     -0.661693
     37 H13        -6.9380   -1.0680    1.4430 hn        1 MOL      0.143372
     38 H14        -4.1450   -1.8960    1.1610 h1        1 MOL      0.090021
     39 H15        -6.0530   -3.3530    1.1330 hc        1 MOL     -0.034999
     40 H16        -6.5720   -2.8190    2.7510 hc        1 MOL     -0.034999
     41 N4         -4.9090   -0.4490    4.0440 n         1 MOL     -0.262587
     42 C14        -4.4100   -0.4080    5.4390 c3        1 MOL     -0.285358
     43 C15        -3.1560    0.5020    5.6450 c         1 MOL      0.658055
     44 O9         -2.5540    0.4860    6.7130 o         1 MOL     -0.573116
     45 H17        -5.6850    0.1400    3.7810 hn        1 MOL      0.241453
     46 H18        -4.1480   -1.3730    5.8650 h1        1 MOL      0.127387
     47 H19        -5.0210    0.1850    6.1300 h1        1 MOL      0.127387
     48 N5         -2.6760    1.1320    4.5290 n         1 MOL     -0.484689
     49 C16        -1.4800    1.9040    4.3400 c3        1 MOL     -0.093193
     50 C17        -1.8760    3.0380    3.3940 c         1 MOL      0.504894
     51 O10        -2.5140    2.7300    2.4280 o         1 MOL     -0.485008
     52 C18        -0.3740    1.1190    3.6040 c3        1 MOL     -0.047331
     53 C19         0.0290   -0.1350    4.3600 c         1 MOL      0.518345
     54 N6          0.5870   -1.0720    3.6250 n         1 MOL     -0.823005
     55 O11        -0.0560   -0.2500    5.5660 o         1 MOL     -0.501664
     56 H20        -3.2130    0.9270    3.6950 hn        1 MOL      0.269055
     57 H21        -1.0200    2.3370    5.2300 h1        1 MOL      0.102057
     58 H22         0.4620    1.8050    3.4560 hc        1 MOL      0.071980
     59 H23        -0.7410    0.7410    2.6530 hc        1 MOL      0.071980
     60 H24         0.6560   -0.9060    2.6300 hn        1 MOL      0.376546
     61 H25         0.8590   -1.9720    3.9990 hn        1 MOL      0.376546
     62 N7         -1.2620    4.1720    3.5370 n         1 MOL     -0.372485
     63 C20        -1.2040    5.2770    2.5830 c3        1 MOL     -0.016346
     64 C21         0.0990    5.9930    2.3970 c         1 MOL      0.593513
     65 O12         1.0830    5.6870    3.1240 o         1 MOL     -0.512409
     66 H26        -0.6730    4.2260    4.3590 hn        1 MOL      0.230225
     67 H27        -1.9050    6.0520    2.8890 h1        1 MOL      0.058799
     68 H28        -1.5120    4.8560    1.6210 h1        1 MOL      0.058799
     69 N8          0.1680    6.9130    1.4540 n         1 MOL     -0.531227
     70 C22         1.4400    7.4640    0.8810 c3        1 MOL     -0.124701
     71 C23         2.1440    6.5730   -0.0890 c         1 MOL      0.578787
     72 O13         3.3510    6.4250   -0.0150 o         1 MOL     -0.554347
     73 C24         1.2780    8.8830    0.2220 c3        1 MOL      0.488100
     74 C25         0.3420    9.0250   -0.9720 c3        1 MOL     -0.460117
     75 O14         0.8550    9.8240    1.1590 oh        1 MOL     -0.631008
     76 H29        -0.6870    7.3220    1.1070 hn        1 MOL      0.267413
     77 H30         2.0940    7.5710    1.7400 h1        1 MOL      0.110923
     78 H31         2.2900    9.1570   -0.0720 h1        1 MOL      0.020090
     79 H32        -0.0830    9.6820    1.3010 ho        1 MOL      0.385255
     80 H33         0.3810   10.0630   -1.2990 hc        1 MOL      0.110508
     81 H34         0.7260    8.4000   -1.7770 hc        1 MOL      0.110508
     82 H35        -0.6550    8.6750   -0.7050 hc        1 MOL      0.110508
     83 N9          1.3730    6.0080   -1.0110 n         1 MOL     -0.354686
     84 C26         1.6640    4.8010   -1.8680 c3        1 MOL     -0.121059
     85 C27         1.2100    3.5520   -1.1470 c         1 MOL      0.712979
     86 O15         0.2860    3.5750   -0.3800 o         1 MOL     -0.462462
     87 C28         0.9920    4.9320   -3.2640 c3        1 MOL      0.097678
     88 C29         1.3780    6.2060   -4.0590 c3        1 MOL     -0.217218
     89 C30         1.1050    3.7380   -4.2330 c3        1 MOL     -0.257782
     90 C31         2.9270    6.3370   -4.2280 c3        1 MOL     -0.118305
     91 H36         0.4010    6.3000   -1.0220 hn        1 MOL      0.242463
     92 H37         2.7100    4.7080   -2.1730 h1        1 MOL      0.112145
     93 H38        -0.0350    5.0970   -2.9210 hc        1 MOL      0.013234
     94 H39         0.9900    7.0980   -3.5860 hc        1 MOL      0.084940
     95 H40         1.0510    6.1120   -5.0960 hc        1 MOL      0.084940
     96 H41         0.5590    2.9250   -3.7550 hc        1 MOL      0.085582
     97 H42         0.6850    4.0720   -5.1850 hc        1 MOL      0.085582
     98 H43         2.1630    3.5220   -4.3450 hc        1 MOL      0.085582
     99 H44         3.4330    6.2540   -3.2640 hc        1 MOL      0.033156
    100 H45         3.2120    5.4260   -4.7610 hc        1 MOL      0.033156
    101 H46         3.1580    7.2380   -4.8000 hc        1 MOL      0.033156
    102 N10         1.9450    2.3820   -1.3590 n         1 MOL     -0.700947
    103 C32         1.7570    1.0370   -0.6860 c3        1 MOL      0.382521
    104 C33         3.1360    0.2290   -0.5710 c         1 MOL      0.363736
    105 O16         3.1790   -0.9900   -0.8260 o         1 MOL     -0.494216
    106 C34         0.6930    0.2160   -1.3590 c3        1 MOL     -0.205533
    107 C35        -0.0800   -0.6190   -0.2330 c         1 MOL      0.652758
    108 O17        -1.2700   -0.7760   -0.4850 o         1 MOL     -0.613981
    109 O18         0.4240   -1.0030    0.8210 o         1 MOL     -0.613981
    110 H47         2.7860    2.4300   -1.9240 hn        1 MOL      0.297570
    111 H48         1.4730    1.1700    0.3540 h1        1 MOL     -0.033454
    112 H49         1.0600   -0.3840   -2.1920 hc        1 MOL      0.077602
    113 H50        -0.0190    0.8750   -1.8670 hc        1 MOL      0.077602
    114 N11         4.3020    0.8670   -0.2930 n         1 MOL     -0.452180
    115 C36         5.4780    0.1270    0.2650 c3        1 MOL      0.401044
    116 C37         6.0760   -0.9630   -0.6740 c         1 MOL      0.216569
    117 O19         6.3780   -0.6890   -1.8090 o         1 MOL     -0.522841
    118 C38         6.5950    1.0700    0.7300 c3        1 MOL     -0.390902
    119 C39         7.7450    0.3220    1.3540 ca        1 MOL      0.177096
    120 C40         7.8740    0.3200    2.7680 ca        1 MOL     -0.196457
    121 C41         8.8550   -0.2020    0.6380 ca        1 MOL     -0.196457
    122 C42         9.0330   -0.3390    3.3810 ca        1 MOL     -0.106098
    123 C43         9.9230   -0.8760    1.2390 ca        1 MOL     -0.106098
    124 C44        10.0290   -0.9580    2.6110 ca        1 MOL     -0.151005
    125 H51         4.3140    1.8750   -0.3370 hn        1 MOL      0.246236
    126 H52         5.1170   -0.2940    1.2020 h1        1 MOL      0.015715
    127 H53         6.1440    1.7260    1.4770 hc        1 MOL      0.131276
    128 H54         6.9910    1.6300   -0.1160 hc        1 MOL      0.131276
    129 H55         7.0450    0.7530    3.3070 ha        1 MOL      0.137221
    130 H56         8.9380   -0.2880   -0.4370 ha        1 MOL      0.137221
    131 H57         9.1690   -0.3880    4.4580 ha        1 MOL      0.111164
    132 H58        10.6980   -1.3540    0.6590 ha        1 MOL      0.111164
    133 H59        10.8360   -1.5200    3.0670 ha        1 MOL      0.119829
    134 N12         6.3090   -2.2150   -0.2120 n         1 MOL     -0.033516
    135 C45         6.8870   -3.3250   -1.0410 c3        1 MOL      0.101787
    136 C46         5.9490   -3.8180   -2.1420 c         1 MOL      0.172090
    137 O20         6.3160   -4.6500   -2.9810 o         1 MOL     -0.499116
    138 C47         7.2400   -4.3650    0.0380 c3        1 MOL     -0.152214
    139 C48         7.4100   -3.6290    1.3330 c3        1 MOL     -0.256800
    140 C49         6.1640   -2.7120    1.1460 c3        1 MOL      0.128202
    141 H60         7.8090   -2.9590   -1.5030 h1        1 MOL      0.086413
    142 H61         6.3030   -4.9190    0.1400 hc        1 MOL      0.086101
    143 H62         8.2110   -4.8290   -0.1370 hc        1 MOL      0.086101
    144 H63         7.2650   -4.3040    2.1820 hc        1 MOL      0.092721
    145 H64         8.3370   -3.0590    1.3120 hc        1 MOL      0.092721
    146 H65         5.2310   -3.2640    1.2340 h1        1 MOL      0.019677
    147 H66         6.1940   -1.8740    1.8480 h1        1 MOL      0.019677
    148 N13         4.6950   -3.3060   -2.1720 n         1 MOL      0.023126
    149 C50         3.6410   -3.6100   -3.2230 c3        1 MOL     -0.349303
    150 C51         3.5310   -2.5880   -4.3990 c         1 MOL      0.535204
    151 O21         2.8240   -2.9210   -5.3310 o         1 MOL     -0.536391
    152 C52         2.3240   -3.7640   -2.4810 c3        1 MOL      0.137537
    153 C53         2.3510   -4.9890   -1.5040 c3        1 MOL     -0.362624
    154 C54         1.0610   -5.1310   -0.6820 c         1 MOL      0.735805
    155 O22         0.0300   -5.5920   -1.2100 o         1 MOL     -0.734350
    156 O23         1.0090   -4.7640    0.4580 o         1 MOL     -0.734350
    157 H67         4.3690   -2.6870   -1.4380 hn        1 MOL      0.127574
    158 H68         3.8510   -4.6140   -3.5820 h1        1 MOL      0.179162
    159 H69         1.4800   -3.7480   -3.1700 hc        1 MOL      0.031309
    160 H70         2.0940   -2.8850   -1.8710 hc        1 MOL      0.031309
    161 H71         3.1950   -4.9500   -0.8130 hc        1 MOL      0.085180
    162 H72         2.5450   -5.7950   -2.2100 hc        1 MOL      0.085180
    163 N14         4.2960   -1.5330   -4.4030 n         1 MOL     -0.254709
    164 C55         4.3250   -0.5750   -5.4700 c3        1 MOL     -0.132120
    165 H73         5.2250    0.0340   -5.3880 h1        1 MOL      0.068261
    166 H74         4.3270   -1.0960   -6.4280 h1        1 MOL      0.068261
    167 H75         3.4460    0.0670   -5.4070 h1        1 MOL      0.068261
    168 H76         4.7060   -1.2540   -3.5220 hn        1 MOL      0.273723
    169 Ca1        -1.6910   -5.0420    0.6990 Ca        1 MOL      1.727078
    170 O24        -1.1370   -5.4330    3.3110 oh        1 MOL     -0.857840
    171 H77        -1.2840   -6.1790    3.8840 ho        1 MOL      0.418067
    172 H78        -1.3750   -4.6620    3.8410 ho        1 MOL      0.418067
    173 O25        -1.3250   -7.6330    1.0970 oh        1 MOL     -0.857840
    174 H79        -0.6180   -8.0640    0.6160 ho        1 MOL      0.418067
    175 H80        -1.6090   -8.2850    1.7350 ho        1 MOL      0.418067
    176 O26        -2.4610   -3.0220   -0.9570 oh        1 MOL     -0.857840
    177 H81        -3.3160   -3.0590   -1.3860 ho        1 MOL      0.418067
    178 H82        -2.3080   -2.0900   -0.8060 ho        1 MOL      0.418067
    179 O27        -1.2880   -2.7560    1.8280 oh        1 MOL     -0.857840
    180 H83        -2.0650   -2.2570    2.0750 ho        1 MOL      0.418067
    181 H84        -0.7110   -2.1050    1.4130 ho        1 MOL      0.418067
    182 O28        -3.4190   -5.7730   -1.3980 oh        1 MOL     -0.857840
    183 H85        -3.3080   -5.4910   -2.3050 ho        1 MOL      0.418067
    184 H86        -4.3740   -5.7400   -1.2560 ho        1 MOL      0.418067
@<TRIPOS>BOND
     1    1    2 1   
     2    1    4 1   
     3    1    5 1   
     4    1    6 1   
     5    2    3 2   
     6    2    7 1   
     7    7    8 1   
     8    7   15 1   
     9    8    9 1   
    10    8   11 1   
    11    8   16 1   
    12    9   10 2   
    13    9   19 1   
    14   11   12 1   
    15   11   17 1   
    16   11   18 1   
    17   12   13 1   
    18   12   14 1   
    19   19   20 1   
    20   19   24 1   
    21   20   21 1   
    22   20   23 1   
    23   20   25 1   
    24   21   22 2   
    25   21   29 1   
    26   23   26 1   
    27   23   27 1   
    28   23   28 1   
    29   29   30 1   
    30   29   37 1   
    31   30   31 1   
    32   30   33 1   
    33   30   38 1   
    34   31   32 2   
    35   31   41 1   
    36   33   34 1   
    37   33   39 1   
    38   33   40 1   
    39   34   35 1   
    40   34   36 1   
    41   41   42 1   
    42   41   45 1   
    43   42   43 1   
    44   42   46 1   
    45   42   47 1   
    46   43   44 2   
    47   43   48 1   
    48   48   49 1   
    49   48   56 1   
    50   49   50 1   
    51   49   52 1   
    52   49   57 1   
    53   50   51 2   
    54   50   62 1   
    55   52   53 1   
    56   52   58 1   
    57   52   59 1   
    58   53   54 1   
    59   53   55 2   
    60   54   60 1   
    61   54   61 1   
    62   62   63 1   
    63   62   66 1   
    64   63   64 1   
    65   63   67 1   
    66   63   68 1   
    67   64   65 2   
    68   64   69 1   
    69   69   70 1   
    70   69   76 1   
    71   70   71 1   
    72   70   73 1   
    73   70   77 1   
    74   71   72 2   
    75   71   83 1   
    76   73   74 1   
    77   73   75 1   
    78   73   78 1   
    79   74   80 1   
    80   74   81 1   
    81   74   82 1   
    82   75   79 1   
    83   83   84 1   
    84   83   91 1   
    85   84   85 1   
    86   84   87 1   
    87   84   92 1   
    88   85   86 2   
    89   85  102 1   
    90   87   88 1   
    91   87   89 1   
    92   87   93 1   
    93   88   90 1   
    94   88   94 1   
    95   88   95 1   
    96   89   96 1   
    97   89   97 1   
    98   89   98 1   
    99   90   99 1   
   100   90  100 1   
   101   90  101 1   
   102  102  103 1   
   103  102  110 1   
   104  103  104 1   
   105  103  106 1   
   106  103  111 1   
   107  104  105 2   
   108  104  114 1   
   109  106  107 1   
   110  106  112 1   
   111  106  113 1   
   112  107  108 1   
   113  107  109 1   
   114  114  115 1   
   115  114  125 1   
   116  115  116 1   
   117  115  118 1   
   118  115  126 1   
   119  116  117 2   
   120  116  134 1   
   121  118  119 1   
   122  118  127 1   
   123  118  128 1   
   124  119  120 ar  
   125  119  121 ar  
   126  120  122 ar  
   127  120  129 1   
   128  121  123 ar  
   129  121  130 1   
   130  122  124 ar  
   131  122  131 1   
   132  123  124 ar  
   133  123  132 1   
   134  124  133 1   
   135  134  135 1   
   136  134  140 1   
   137  135  136 1   
   138  135  138 1   
   139  135  141 1   
   140  136  137 2   
   141  136  148 1   
   142  138  139 1   
   143  138  142 1   
   144  138  143 1   
   145  139  140 1   
   146  139  144 1   
   147  139  145 1   
   148  140  146 1   
   149  140  147 1   
   150  148  149 1   
   151  148  157 1   
   152  149  150 1   
   153  149  152 1   
   154  149  158 1   
   155  150  151 2   
   156  150  163 1   
   157  152  153 1   
   158  152  159 1   
   159  152  160 1   
   160  153  154 1   
   161  153  161 1   
   162  153  162 1   
   163  154  155 1   
   164  154  156 1   
   165  163  164 1   
   166  163  168 1   
   167  164  165 1   
   168  164  166 1   
   169  164  167 1   
   170  170  171 1   
   171  170  172 1   
   172  173  174 1   
   173  173  175 1   
   174  176  177 1   
   175  176  178 1   
   176  179  180 1   
   177  179  181 1   
   178  182  183 1   
   179  182  184 1   
@<TRIPOS>SUBSTRUCTURE
     1 MOL         1 TEMP              0 ****  ****    0 ROOT
