@<TRIPOS>MOLECULE
MOL
  175   173     1     0     0
SMALL
resp


@<TRIPOS>ATOM
      1 C1         -6.7410    7.8640    2.5060 c3        1 MOL     -0.392539
      2 C2         -7.6300    7.1640    1.4170 c         1 MOL      0.666418
      3 O1         -8.0910    7.7800    0.4360 o         1 MOL     -0.592207
      4 H1         -5.9590    7.1770    2.8330 hc        1 MOL      0.100027
      5 H2         -6.2830    8.7580    2.0820 hc        1 MOL      0.100027
      6 H3         -7.3600    8.1420    3.3590 hc        1 MOL      0.100027
      7 N1         -7.9360    5.8490    1.4850 n         1 MOL     -0.651798
      8 C3         -8.7040    5.0120    0.5050 c3        1 MOL      0.566113
      9 C4         -7.8350    3.7990   -0.0540 c         1 MOL      0.431086
     10 O2         -8.3710    2.6820   -0.0370 o         1 MOL     -0.500945
     11 C5         -9.9490    4.5020    1.2540 c3        1 MOL     -0.358768
     12 C6        -11.0230    3.9980    0.3440 c         1 MOL      0.757175
     13 O3        -12.0160    3.4280    0.8190 o         1 MOL     -0.736795
     14 O4        -10.9550    4.1930   -0.9210 o         1 MOL     -0.736795
     15 H4         -7.6030    5.3560    2.3010 hn        1 MOL      0.283234
     16 H5         -9.0330    5.5820   -0.3660 h1        1 MOL     -0.047944
     17 H6        -10.3340    5.3290    1.8430 hc        1 MOL      0.048362
     18 H7         -9.6280    3.7190    1.9320 hc        1 MOL      0.048362
     19 N2         -6.6240    4.1030   -0.4880 n         1 MOL     -0.641068
     20 C7         -5.7550    3.1310   -1.1020 c3        1 MOL      0.307172
     21 C8         -5.0500    2.3240   -0.0450 c         1 MOL      0.497707
     22 O5         -4.5750    2.8440    0.9940 o         1 MOL     -0.580373
     23 C9         -4.8920    3.8160   -2.0900 c3        1 MOL     -0.111132
     24 H8         -6.2670    5.0430   -0.3850 hn        1 MOL      0.313475
     25 H9         -6.3780    2.3800   -1.5960 h1        1 MOL      0.029658
     26 H10        -5.4100    4.4850   -2.7770 hc        1 MOL      0.029442
     27 H11        -4.1740    4.4560   -1.5840 hc        1 MOL      0.029442
     28 H12        -4.3600    3.0950   -2.7020 hc        1 MOL      0.029442
     29 N3         -4.9430    1.0380   -0.1590 n         1 MOL     -0.272105
     30 C10        -5.3470    0.1440   -1.2270 c3        1 MOL     -0.090767
     31 C11        -5.6420   -1.1680   -0.5590 c         1 MOL      0.470315
     32 O6         -5.1810   -1.5170    0.5630 o         1 MOL     -0.483143
     33 C12        -4.3060   -0.1150   -2.3090 c3        1 MOL     -0.305715
     34 C13        -2.8860    0.1640   -1.9110 c         1 MOL      0.692962
     35 O7         -2.3350    1.2290   -2.2050 o         1 MOL     -0.651778
     36 O8         -2.3350   -0.7470   -1.2720 o         1 MOL     -0.651778
     37 H13        -4.6480    0.5940    0.7000 hn        1 MOL      0.267160
     38 H14        -6.3090    0.4440   -1.6370 h1        1 MOL      0.097221
     39 H15        -4.5590    0.5170   -3.1640 hc        1 MOL      0.069619
     40 H16        -4.3450   -1.1270   -2.7140 hc        1 MOL      0.069619
     41 N4         -6.4610   -1.9690   -1.2960 n         1 MOL     -0.378990
     42 C14        -6.7580   -3.3060   -0.9610 c3        1 MOL      0.125529
     43 C15        -6.5700   -4.2780   -2.1310 c         1 MOL      0.508756
     44 O9         -7.3880   -4.3850   -3.0430 o         1 MOL     -0.559752
     45 H17        -6.8950   -1.5430   -2.1010 hn        1 MOL      0.285226
     46 H18        -7.7730   -3.4370   -0.5860 h1        1 MOL      0.016540
     47 H19        -6.0830   -3.6270   -0.1720 h1        1 MOL      0.016540
     48 N5         -5.4590   -4.9790   -2.2810 n         1 MOL     -0.563550
     49 C16        -4.1820   -4.7260   -1.5370 c3        1 MOL      0.323956
     50 C17        -4.1410   -5.3800   -0.1900 c         1 MOL      0.447439
     51 O10        -4.6440   -6.5400    0.0100 o         1 MOL     -0.538977
     52 C18        -2.9170   -5.1570   -2.4020 c3        1 MOL     -0.331257
     53 C19        -1.5670   -4.6440   -1.8890 c         1 MOL      0.558303
     54 N6         -0.5330   -5.1790   -2.3700 n         1 MOL     -0.458314
     55 O11        -1.4450   -3.8770   -1.0140 o         1 MOL     -0.668667
     56 H20        -5.4630   -5.5220   -3.1420 hn        1 MOL      0.320846
     57 H21        -4.0760   -3.6480   -1.4620 h1        1 MOL      0.052981
     58 H22        -3.0520   -4.5570   -3.3120 hc        1 MOL      0.093336
     59 H23        -2.9210   -6.2290   -2.6090 hc        1 MOL      0.093336
     60 H24        -0.6850   -5.8600   -3.0980 hn        1 MOL      0.278760
     61 H25         0.3540   -4.8380   -2.0350 hn        1 MOL      0.278760
     62 N7         -3.4640   -4.7150    0.8030 n         1 MOL     -0.172529
     63 C20        -3.1360   -5.2940    2.1180 c3        1 MOL     -0.212113
     64 C21        -1.7390   -5.8610    2.4260 c         1 MOL      0.600477
     65 O12        -1.5160   -6.7590    3.2560 o         1 MOL     -0.568349
     66 H26        -3.1060   -3.7930    0.5950 hn        1 MOL      0.197397
     67 H27        -3.6770   -6.2430    2.1870 h1        1 MOL      0.101616
     68 H28        -3.4810   -4.6440    2.9160 h1        1 MOL      0.101616
     69 N8         -0.6990   -5.2560    1.7930 n         1 MOL     -0.283688
     70 C22         0.7390   -5.2660    2.1270 c3        1 MOL     -0.149158
     71 C23         1.3340   -3.9090    2.0570 c         1 MOL      0.349809
     72 O13         0.9010   -3.0280    1.3190 o         1 MOL     -0.525420
     73 C24         1.5980   -6.3320    1.3240 c3        1 MOL      0.458972
     74 C25         1.4650   -7.7480    1.9150 c3        1 MOL     -0.325857
     75 O14         1.2400   -6.3120   -0.0250 oh        1 MOL     -0.639703
     76 H29        -0.9350   -4.6240    1.0510 hn        1 MOL      0.223137
     77 H30         0.8450   -5.4000    3.1970 h1        1 MOL      0.082779
     78 H31         2.6370   -6.0400    1.5170 h1        1 MOL     -0.034091
     79 H32         1.4700   -5.4660   -0.3970 ho        1 MOL      0.354938
     80 H33         2.3610   -8.3080    1.6190 hc        1 MOL      0.081118
     81 H34         1.6490   -7.6530    2.9870 hc        1 MOL      0.081118
     82 H35         0.5360   -8.2680    1.6920 hc        1 MOL      0.081118
     83 N9          2.4110   -3.5960    2.7710 n         1 MOL      0.004696
     84 C26         3.1590   -2.4270    2.7390 c3        1 MOL      0.012045
     85 C27         4.4530   -2.6690    1.8740 c         1 MOL      0.209744
     86 O15         5.3650   -3.4340    2.2290 o         1 MOL     -0.503709
     87 C28         3.4650   -1.8370    4.1690 c3        1 MOL      0.310249
     88 C29         4.1010   -0.4660    4.0660 c3        1 MOL      0.235956
     89 C30         2.2280   -1.8420    5.1180 c3        1 MOL     -0.457390
     90 C31         4.7430    0.0930    5.2970 c3        1 MOL     -0.386381
     91 H36         2.8220   -4.2520    3.4240 hn        1 MOL      0.144790
     92 H37         2.6510   -1.6510    2.1760 h1        1 MOL     -0.037831
     93 H38         4.2560   -2.4670    4.5520 hc        1 MOL     -0.095271
     94 H39         3.2730    0.1980    3.8350 hc        1 MOL     -0.035661
     95 H40         4.8430   -0.3630    3.2760 hc        1 MOL     -0.035661
     96 H41         1.7830   -2.8400    5.1020 hc        1 MOL      0.105312
     97 H42         2.5630   -1.5800    6.1270 hc        1 MOL      0.105312
     98 H43         1.4760   -1.1600    4.7230 hc        1 MOL      0.105312
     99 H44         5.2750   -0.6870    5.8560 hc        1 MOL      0.083638
    100 H45         5.4620    0.7990    4.8860 hc        1 MOL      0.083638
    101 H46         3.9810    0.4470    5.9850 hc        1 MOL      0.083638
    102 N10         4.4180   -2.0800    0.6950 n         1 MOL     -0.147583
    103 C32         5.0280   -2.5890   -0.5540 c3        1 MOL      0.073469
    104 C33         5.6780   -1.4130   -1.3760 c         1 MOL      0.449091
    105 O16         6.2050   -1.5690   -2.4990 o         1 MOL     -0.547244
    106 C34         4.1910   -3.6010   -1.3360 c3        1 MOL     -0.284266
    107 C35         2.7440   -3.2550   -1.4710 c         1 MOL      0.848953
    108 O17         2.4960   -2.1300   -1.9780 o         1 MOL     -0.723318
    109 O18         1.8310   -4.0660   -1.2650 o         1 MOL     -0.723318
    110 H47         3.5250   -1.6330    0.4950 hn        1 MOL      0.188008
    111 H48         5.9560   -3.0880   -0.2720 h1        1 MOL      0.082178
    112 H49         4.3200   -4.5430   -0.7880 hc        1 MOL      0.079951
    113 H50         4.5010   -3.8250   -2.3620 hc        1 MOL      0.079951
    114 N11         5.8710   -0.3130   -0.6760 n         1 MOL     -0.346116
    115 C36         6.5640    0.9030   -1.1980 c3        1 MOL      0.208239
    116 C37         6.0980    2.2680   -0.6060 c         1 MOL      0.386423
    117 O19         5.9960    2.3770    0.5960 o         1 MOL     -0.490976
    118 C38         8.0630    0.7070   -1.1460 c3        1 MOL     -0.360734
    119 C39         8.9240    1.9180   -1.4230 ca        1 MOL      0.205777
    120 C40         9.4700    2.6690   -0.3600 ca        1 MOL     -0.191712
    121 C41         9.3990    2.1900   -2.6970 ca        1 MOL     -0.191712
    122 C42        10.2390    3.8140   -0.6790 ca        1 MOL     -0.092959
    123 C43        10.2710    3.3150   -3.0160 ca        1 MOL     -0.092959
    124 C44        10.7390    4.0760   -1.9650 ca        1 MOL     -0.165804
    125 H51         5.4320   -0.3190    0.2300 hn        1 MOL      0.194701
    126 H52         6.3040    0.8550   -2.2470 h1        1 MOL      0.027584
    127 H53         8.4570   -0.1160   -1.7380 hc        1 MOL      0.126045
    128 H54         8.1050    0.3690   -0.1110 hc        1 MOL      0.126045
    129 H55         9.2540    2.4250    0.6720 ha        1 MOL      0.119566
    130 H56         8.9760    1.5830   -3.4820 ha        1 MOL      0.119566
    131 H57        10.6800    4.2570    0.2040 ha        1 MOL      0.101555
    132 H58        10.5030    3.5040   -4.0500 ha        1 MOL      0.101555
    133 H59        11.2770    4.9820   -2.2280 ha        1 MOL      0.115443
    134 N12         5.9400    3.2860   -1.4340 n         1 MOL     -0.111074
    135 C45         5.8350    4.6900   -0.9760 c3        1 MOL      0.064765
    136 C46         4.5800    4.9730   -0.1950 c         1 MOL      0.317039
    137 O20         4.2530    6.1730    0.0170 o         1 MOL     -0.498019
    138 C47         5.9960    5.5470   -2.2040 c3        1 MOL     -0.070283
    139 C48         5.3390    4.6120   -3.2630 c3        1 MOL      0.037573
    140 C49         5.9380    3.3240   -2.8870 c3        1 MOL     -0.368721
    141 H60         6.5760    4.9930   -0.2440 h1        1 MOL      0.045883
    142 H61         5.4420    6.4890   -2.1910 hc        1 MOL      0.055328
    143 H62         7.0110    5.7450   -2.5310 hc        1 MOL      0.055328
    144 H63         4.2750    4.4650   -3.1160 hc        1 MOL      0.033331
    145 H64         5.5700    4.8720   -4.2920 hc        1 MOL      0.033331
    146 H65         5.3080    2.5130   -3.2600 h1        1 MOL      0.154893
    147 H66         6.9630    3.2680   -3.2410 h1        1 MOL      0.154893
    148 N13         3.7010    3.9850    0.0550 n         1 MOL     -0.067757
    149 C50         2.4720    4.1330    0.8000 c3        1 MOL     -0.429699
    150 C51         2.6920    4.6840    2.1780 c         1 MOL      0.602682
    151 O21         1.8930    5.4610    2.6680 o         1 MOL     -0.547499
    152 C52         1.5480    2.8600    0.8330 c3        1 MOL      0.002129
    153 C53         1.9540    1.6350    1.5330 c3        1 MOL     -0.078094
    154 C54         1.3150    0.4380    0.8370 c         1 MOL      0.729557
    155 O22         2.0570   -0.2250    0.1230 o         1 MOL     -0.758300
    156 O23         0.1110    0.1040    0.9580 o         1 MOL     -0.758300
    157 H67         3.8790    3.0330   -0.2350 hn        1 MOL      0.233076
    158 H68         1.9230    4.9170    0.2750 h1        1 MOL      0.171044
    159 H69         1.4000    2.5750   -0.2100 hc        1 MOL      0.072455
    160 H70         0.5780    3.1460    1.2370 hc        1 MOL      0.072455
    161 H71         1.7860    1.7840    2.6030 hc        1 MOL      0.022798
    162 H72         3.0340    1.5920    1.3830 hc        1 MOL      0.022798
    163 N14         3.7760    4.3930    2.8660 n         1 MOL     -0.199203
    164 C55         3.9880    4.8590    4.2640 c3        1 MOL     -0.264103
    165 H73         4.8950    4.4060    4.6640 h1        1 MOL      0.107996
    166 H74         4.0900    5.9440    4.2740 h1        1 MOL      0.107996
    167 H75         3.1360    4.5670    4.8770 h1        1 MOL      0.107996
    168 H76         4.4610    3.7660    2.4610 hn        1 MOL      0.195569
    169 Ca1         0.1100   -1.6740   -0.8890 Ca        1 MOL      1.724757
    170 O24         0.0780    0.4690   -2.6210 oh        1 MOL     -0.781097
    171 H77         0.3710    0.7560   -3.4840 ho        1 MOL      0.369337
    172 H78        -0.8550    0.7050   -2.5850 ho        1 MOL      0.369337
    173 O25        -0.3320   -2.4640   -3.3670 oh        1 MOL     -0.781097
    174 H79        -0.3950   -1.6440   -3.8600 ho        1 MOL      0.369337
    175 H80         0.2380   -3.0200   -3.9010 ho        1 MOL      0.369337
@<TRIPOS>BOND
     1    1    2 1   
     2    1    4 1   
     3    1    5 1   
     4    1    6 1   
     5    2    3 2   
     6    2    7 1   
     7    7    8 1   
     8    7   15 1   
     9    8    9 1   
    10    8   11 1   
    11    8   16 1   
    12    9   10 2   
    13    9   19 1   
    14   11   12 1   
    15   11   17 1   
    16   11   18 1   
    17   12   13 1   
    18   12   14 1   
    19   19   20 1   
    20   19   24 1   
    21   20   21 1   
    22   20   23 1   
    23   20   25 1   
    24   21   22 2   
    25   21   29 1   
    26   23   26 1   
    27   23   27 1   
    28   23   28 1   
    29   29   30 1   
    30   29   37 1   
    31   30   31 1   
    32   30   33 1   
    33   30   38 1   
    34   31   32 2   
    35   31   41 1   
    36   33   34 1   
    37   33   39 1   
    38   33   40 1   
    39   34   35 1   
    40   34   36 1   
    41   41   42 1   
    42   41   45 1   
    43   42   43 1   
    44   42   46 1   
    45   42   47 1   
    46   43   44 2   
    47   43   48 1   
    48   48   49 1   
    49   48   56 1   
    50   49   50 1   
    51   49   52 1   
    52   49   57 1   
    53   50   51 2   
    54   50   62 1   
    55   52   53 1   
    56   52   58 1   
    57   52   59 1   
    58   53   54 1   
    59   53   55 2   
    60   54   60 1   
    61   54   61 1   
    62   62   63 1   
    63   62   66 1   
    64   63   64 1   
    65   63   67 1   
    66   63   68 1   
    67   64   65 2   
    68   64   69 1   
    69   69   70 1   
    70   69   76 1   
    71   70   71 1   
    72   70   73 1   
    73   70   77 1   
    74   71   72 2   
    75   71   83 1   
    76   73   74 1   
    77   73   75 1   
    78   73   78 1   
    79   74   80 1   
    80   74   81 1   
    81   74   82 1   
    82   75   79 1   
    83   83   84 1   
    84   83   91 1   
    85   84   85 1   
    86   84   87 1   
    87   84   92 1   
    88   85   86 2   
    89   85  102 1   
    90   87   88 1   
    91   87   89 1   
    92   87   93 1   
    93   88   90 1   
    94   88   94 1   
    95   88   95 1   
    96   89   96 1   
    97   89   97 1   
    98   89   98 1   
    99   90   99 1   
   100   90  100 1   
   101   90  101 1   
   102  102  103 1   
   103  102  110 1   
   104  103  104 1   
   105  103  106 1   
   106  103  111 1   
   107  104  105 2   
   108  104  114 1   
   109  106  107 1   
   110  106  112 1   
   111  106  113 1   
   112  107  108 1   
   113  107  109 1   
   114  114  115 1   
   115  114  125 1   
   116  115  116 1   
   117  115  118 1   
   118  115  126 1   
   119  116  117 2   
   120  116  134 1   
   121  118  119 1   
   122  118  127 1   
   123  118  128 1   
   124  119  120 ar  
   125  119  121 ar  
   126  120  122 ar  
   127  120  129 1   
   128  121  123 ar  
   129  121  130 1   
   130  122  124 ar  
   131  122  131 1   
   132  123  124 ar  
   133  123  132 1   
   134  124  133 1   
   135  134  135 1   
   136  134  140 1   
   137  135  136 1   
   138  135  138 1   
   139  135  141 1   
   140  136  137 2   
   141  136  148 1   
   142  138  139 1   
   143  138  142 1   
   144  138  143 1   
   145  139  140 1   
   146  139  144 1   
   147  139  145 1   
   148  140  146 1   
   149  140  147 1   
   150  148  149 1   
   151  148  157 1   
   152  149  150 1   
   153  149  152 1   
   154  149  158 1   
   155  150  151 2   
   156  150  163 1   
   157  152  153 1   
   158  152  159 1   
   159  152  160 1   
   160  153  154 1   
   161  153  161 1   
   162  153  162 1   
   163  154  155 1   
   164  154  156 1   
   165  163  164 1   
   166  163  168 1   
   167  164  165 1   
   168  164  166 1   
   169  164  167 1   
   170  170  171 1   
   171  170  172 1   
   172  173  174 1   
   173  173  175 1   
@<TRIPOS>SUBSTRUCTURE
     1 MOL         1 TEMP              0 ****  ****    0 ROOT
