@<TRIPOS>MOLECULE
MOL
  181   177     1     0     0
SMALL
resp


@<TRIPOS>ATOM
      1 C1        -10.1980   -6.4430   -1.7900 c3        1 MOL     -0.281591
      2 C2         -9.5360   -5.7610   -0.6080 c         1 MOL      0.614934
      3 O1         -9.6910   -6.1340    0.5660 o         1 MOL     -0.617145
      4 H1        -11.2340   -6.1110   -1.8660 hc        1 MOL      0.076894
      5 H2         -9.6660   -6.1840   -2.7060 hc        1 MOL      0.076894
      6 H3        -10.1730   -7.5230   -1.6470 hc        1 MOL      0.076894
      7 N1         -8.7400   -4.7240   -0.7500 n         1 MOL     -0.338041
      8 C3         -8.1700   -4.0880   -1.9790 c3        1 MOL     -0.019977
      9 C4         -7.6490   -2.7050   -1.6880 c         1 MOL      0.424020
     10 O2         -7.2000   -2.3790   -0.5640 o         1 MOL     -0.403976
     11 C5         -6.9870   -4.9460   -2.5420 c3        1 MOL     -0.213553
     12 C6         -5.9940   -5.4020   -1.5440 c         1 MOL      0.765383
     13 O3         -4.9210   -5.9290   -1.9130 o         1 MOL     -0.734202
     14 O4         -6.0300   -5.1730   -0.3280 o         1 MOL     -0.734202
     15 H4         -8.3360   -4.4090    0.1150 hn        1 MOL      0.254126
     16 H5         -8.9100   -3.9950   -2.7750 h1        1 MOL      0.061394
     17 H6         -6.4800   -4.5370   -3.4180 hc        1 MOL      0.067226
     18 H7         -7.4570   -5.8590   -2.9240 hc        1 MOL      0.067226
     19 N2         -7.6730   -1.7800   -2.7340 n         1 MOL     -0.482716
     20 C7         -7.1240   -0.4540   -2.6520 c3        1 MOL      0.032498
     21 C8         -7.6280    0.3430   -1.4250 c         1 MOL      0.650751
     22 O5         -8.8040    0.1560   -0.9930 o         1 MOL     -0.515386
     23 C9         -7.7250    0.3220   -3.8870 c3        1 MOL     -0.253716
     24 H8         -7.9720   -2.0440   -3.6580 hn        1 MOL      0.322159
     25 H9         -6.0450   -0.4470   -2.7570 h1        1 MOL      0.063624
     26 H10        -8.7980    0.4220   -3.7710 hc        1 MOL      0.079367
     27 H11        -7.3420    1.3420   -3.9740 hc        1 MOL      0.079367
     28 H12        -7.4760   -0.2540   -4.7680 hc        1 MOL      0.079367
     29 N3         -6.7480    1.1970   -0.9110 n         1 MOL     -0.625779
     30 C10        -6.8410    1.8690    0.3290 c3        1 MOL     -0.025932
     31 C11        -6.7610    3.3610    0.1890 c         1 MOL      0.648645
     32 O6         -6.1400    3.9160   -0.7390 o         1 MOL     -0.494709
     33 C12        -5.7570    1.3060    1.2010 c3        1 MOL      0.041542
     34 C13        -5.7100   -0.1930    1.3710 c         1 MOL      0.561795
     35 O7         -4.6470   -0.7920    1.0280 o         1 MOL     -0.675353
     36 O8         -6.6640   -0.9280    1.7560 o         1 MOL     -0.675353
     37 H13        -5.8660    1.3500   -1.3630 hn        1 MOL      0.337749
     38 H14        -7.8160    1.6020    0.7230 h1        1 MOL      0.058001
     39 H15        -5.8400    1.8080    2.1620 hc        1 MOL     -0.022085
     40 H16        -4.7870    1.6670    0.8580 hc        1 MOL     -0.022085
     41 N4         -7.4250    4.0240    1.1130 n         1 MOL     -0.445255
     42 C14        -7.3730    5.4530    1.3720 c3        1 MOL     -0.133188
     43 C15        -5.9170    5.9430    1.5970 c         1 MOL      0.502058
     44 O9         -5.5160    6.9450    1.0480 o         1 MOL     -0.497762
     45 H17        -7.9770    3.5470    1.8130 hn        1 MOL      0.299159
     46 H18        -7.9410    5.6880    2.2610 h1        1 MOL      0.105942
     47 H19        -7.8130    5.9890    0.5250 h1        1 MOL      0.105942
     48 N5         -5.1410    5.3120    2.4780 n         1 MOL     -0.429981
     49 C16        -3.7830    5.6390    2.7570 c3        1 MOL      0.061405
     50 C17        -2.8100    4.9280    1.7620 c         1 MOL      0.413150
     51 O10        -1.6050    4.8370    2.0130 o         1 MOL     -0.499430
     52 C18        -3.4550    5.2520    4.2480 c3        1 MOL     -0.165959
     53 C19        -2.8860    3.8100    4.4170 c         1 MOL      0.544866
     54 N6         -1.8480    3.7030    5.1420 n         1 MOL     -0.704342
     55 O11        -3.4050    2.8450    3.9560 o         1 MOL     -0.500814
     56 H20        -5.5510    4.6310    3.0880 hn        1 MOL      0.270544
     57 H21        -3.7130    6.7170    2.6280 h1        1 MOL      0.121823
     58 H22        -4.3490    5.4370    4.8450 hc        1 MOL      0.051751
     59 H23        -2.7800    6.0360    4.6110 hc        1 MOL      0.051751
     60 H24        -1.4340    4.5170    5.5660 hn        1 MOL      0.352628
     61 H25        -1.4660    2.7820    5.3010 hn        1 MOL      0.352628
     62 N7         -3.3130    4.3750    0.6710 n         1 MOL     -0.202928
     63 C20        -2.5140    3.8900   -0.4120 c3        1 MOL      0.080033
     64 C21        -2.2060    4.9250   -1.5440 c         1 MOL      0.577740
     65 O12        -2.8140    6.0300   -1.5530 o         1 MOL     -0.558112
     66 H26        -4.3050    4.4050    0.5170 hn        1 MOL      0.158966
     67 H27        -3.0500    3.0830   -0.9240 h1        1 MOL      0.040481
     68 H28        -1.5670    3.5170   -0.0130 h1        1 MOL      0.040481
     69 N8         -1.2790    4.6390   -2.4540 n         1 MOL     -0.557821
     70 C22        -0.5730    3.3640   -2.7590 c3        1 MOL      0.022510
     71 C23         0.6400    3.0610   -1.8450 c         1 MOL      0.457064
     72 O13         1.4180    3.9260   -1.4040 o         1 MOL     -0.445326
     73 C24        -0.0060    3.2270   -4.2070 c3        1 MOL      0.428099
     74 C25        -1.1000    3.3440   -5.2650 c3        1 MOL     -0.121374
     75 O14         0.9150    4.2460   -4.4820 oh        1 MOL     -0.593608
     76 H29        -1.2140    5.3890   -3.1340 hn        1 MOL      0.349050
     77 H30        -1.2240    2.4880   -2.7150 h1        1 MOL      0.021656
     78 H31         0.4520    2.2430   -4.3960 h1        1 MOL      0.008509
     79 H32         1.7790    3.8130   -4.5500 ho        1 MOL      0.368976
     80 H33        -1.5110    2.3420   -5.3990 hc        1 MOL      0.011249
     81 H34        -1.8530    4.0790   -4.9940 hc        1 MOL      0.011249
     82 H35        -0.6730    3.5200   -6.2560 hc        1 MOL      0.011249
     83 N9          0.6400    1.7630   -1.5560 n         1 MOL     -0.560418
     84 C26         1.7260    1.1000   -0.9120 c3        1 MOL     -0.077962
     85 C27         2.3440   -0.0790   -1.7400 c         1 MOL      0.530969
     86 O15         1.5710   -0.9570   -2.0760 o         1 MOL     -0.554546
     87 C28         1.2840    0.6040    0.4760 c3        1 MOL     -0.021869
     88 C29         0.8220    1.8140    1.3430 c3        1 MOL      0.016690
     89 C30         2.2930   -0.2090    1.2440 c3        1 MOL     -0.039177
     90 C31        -0.1550    1.5630    2.4680 c3        1 MOL     -0.134749
     91 H36         0.0150    1.1520   -2.0520 hn        1 MOL      0.292483
     92 H37         2.5040    1.8330   -0.6680 h1        1 MOL      0.177664
     93 H38         0.5030   -0.1500    0.3510 hc        1 MOL      0.071346
     94 H39         0.3020    2.5270    0.7040 hc        1 MOL      0.051268
     95 H40         1.6940    2.3570    1.7250 hc        1 MOL      0.051268
     96 H41         3.2690    0.2660    1.2190 hc        1 MOL      0.027801
     97 H42         2.1190   -0.1910    2.3280 hc        1 MOL      0.027801
     98 H43         2.1980   -1.2500    0.9380 hc        1 MOL      0.027801
     99 H44        -0.9420    1.0280    1.9510 hc        1 MOL      0.014860
    100 H45         0.3670    0.9450    3.1950 hc        1 MOL      0.014860
    101 H46        -0.4180    2.4620    3.0250 hc        1 MOL      0.014860
    102 N10         3.6040   -0.1470   -2.0350 n         1 MOL     -0.495682
    103 C32         4.6190    0.7500   -1.5310 c3        1 MOL      0.238563
    104 C33         6.0720    0.0530   -1.4990 c         1 MOL      0.607823
    105 O16         6.2170   -1.1080   -1.8800 o         1 MOL     -0.564122
    106 C34         4.6670    2.0530   -2.3340 c3        1 MOL     -0.362883
    107 C35         5.4790    3.2070   -1.7290 c         1 MOL      0.727428
    108 O17         5.7630    3.1240   -0.5230 o         1 MOL     -0.700285
    109 O18         5.6610    4.2400   -2.4190 o         1 MOL     -0.700285
    110 H47         3.8650   -0.9480   -2.5910 hn        1 MOL      0.355669
    111 H48         4.3470    1.0810   -0.5270 h1        1 MOL     -0.019956
    112 H49         3.6560    2.4790   -2.3650 hc        1 MOL      0.060690
    113 H50         5.0360    1.8070   -3.3240 hc        1 MOL      0.060690
    114 N11         7.0670    0.7230   -0.9760 n         1 MOL     -0.649679
    115 C36         8.4300    0.2120   -0.6620 c3        1 MOL      0.371732
    116 C37         8.7660    0.4900    0.8260 c         1 MOL      0.242140
    117 O19         8.5980    1.5940    1.3170 o         1 MOL     -0.454240
    118 C38         9.3060    0.8870   -1.6800 c3        1 MOL     -0.045932
    119 C39        10.7650    0.3750   -1.7060 ca        1 MOL      0.068633
    120 C40        11.7790    1.1580   -1.1130 ca        1 MOL     -0.141788
    121 C41        11.0690   -0.8530   -2.1800 ca        1 MOL     -0.141788
    122 C42        13.0620    0.6630   -1.0210 ca        1 MOL     -0.136092
    123 C43        12.3400   -1.4050   -2.0950 ca        1 MOL     -0.136092
    124 C44        13.3740   -0.6560   -1.4880 ca        1 MOL     -0.130720
    125 H51         6.8500    1.7020   -0.8570 hn        1 MOL      0.327473
    126 H52         8.4740   -0.8340   -0.9590 h1        1 MOL      0.013801
    127 H53         9.3450    1.9640   -1.4830 hc        1 MOL      0.026884
    128 H54         8.9690    0.8260   -2.7100 hc        1 MOL      0.026884
    129 H55        11.5920    2.1760   -0.7810 ha        1 MOL      0.120875
    130 H56        10.2970   -1.4510   -2.6320 ha        1 MOL      0.120875
    131 H57        13.9060    1.1710   -0.5680 ha        1 MOL      0.104160
    132 H58        12.4420   -2.4160   -2.4560 ha        1 MOL      0.104160
    133 H59        14.3910   -0.9980   -1.4800 ha        1 MOL      0.094638
    134 N12         9.1750   -0.5210    1.5820 n         1 MOL     -0.041372
    135 C45         9.3030   -1.9210    1.2170 c3        1 MOL      0.018514
    136 C46         7.9530   -2.6390    1.1420 c         1 MOL      0.515906
    137 O20         8.0480   -3.7310    0.5880 o         1 MOL     -0.547196
    138 C47        10.1280   -2.4610    2.3810 c3        1 MOL     -0.201529
    139 C48         9.5570   -1.7490    3.6010 c3        1 MOL      0.117971
    140 C49         9.5560   -0.3260    3.0000 c3        1 MOL     -0.241147
    141 H60         9.8140   -2.0970    0.2750 h1        1 MOL      0.081514
    142 H61         9.9980   -3.5460    2.3770 hc        1 MOL      0.059660
    143 H62        11.1730   -2.1640    2.2640 hc        1 MOL      0.059660
    144 H63         8.5480   -2.0660    3.8590 hc        1 MOL     -0.009508
    145 H64        10.1730   -1.8190    4.5030 hc        1 MOL     -0.009508
    146 H65         8.7860    0.3210    3.4250 h1        1 MOL      0.100963
    147 H66        10.5270    0.0770    3.2780 h1        1 MOL      0.100963
    148 N13         6.7800   -2.2080    1.6690 n         1 MOL     -0.339923
    149 C50         5.5530   -3.0140    1.8380 c3        1 MOL     -0.145614
    150 C51         4.7560   -2.5020    3.0360 c         1 MOL      0.451518
    151 O21         4.5660   -1.3390    3.1050 o         1 MOL     -0.533645
    152 C52         4.5560   -3.0890    0.6710 c3        1 MOL     -0.178004
    153 C53         5.1810   -3.9900   -0.4480 c3        1 MOL     -0.257823
    154 C54         4.0890   -4.3330   -1.4400 c         1 MOL      0.786222
    155 O22         3.3660   -5.3150   -1.1530 o         1 MOL     -0.758875
    156 O23         4.0060   -3.6660   -2.4970 o         1 MOL     -0.758875
    157 H67         6.7330   -1.2510    1.9820 hn        1 MOL      0.321327
    158 H68         5.9130   -4.0390    1.9420 h1        1 MOL      0.165753
    159 H69         4.3070   -2.0950    0.3060 hc        1 MOL      0.122962
    160 H70         3.6750   -3.6650    0.9500 hc        1 MOL      0.122962
    161 H71         5.5130   -4.9340   -0.0050 hc        1 MOL      0.061878
    162 H72         6.0110   -3.4610   -0.9060 hc        1 MOL      0.061878
    163 N14         4.3120   -3.3580    3.9530 n         1 MOL     -0.393505
    164 C55         4.0720   -4.7910    3.7850 c3        1 MOL     -0.063159
    165 H73         3.2060   -4.9410    3.1400 h1        1 MOL      0.058212
    166 H74         4.9480   -5.2560    3.3310 h1        1 MOL      0.058212
    167 H75         3.8830   -5.2450    4.7580 h1        1 MOL      0.058212
    168 H76         3.8200   -2.9040    4.7140 hn        1 MOL      0.278880
    169 Ca1        -5.2920   -3.2810    1.1990 Ca        1 MOL      1.695374
    170 O24        -5.0230   -2.6270    3.8220 oh        1 MOL     -0.846577
    171 H77        -5.4320   -2.9300    4.6300 ho        1 MOL      0.421727
    172 H78        -4.3660   -1.9860    4.1070 ho        1 MOL      0.421727
    173 O25        -3.5630   -2.9170   -0.8680 oh        1 MOL     -0.846577
    174 H79        -2.7490   -2.4900   -1.1390 ho        1 MOL      0.421727
    175 H80        -3.9760   -3.1840   -1.6930 ho        1 MOL      0.421727
    176 O26        -7.8290   -4.2810    2.1230 oh        1 MOL     -0.846577
    177 H81        -7.9170   -5.1920    2.4000 ho        1 MOL      0.421727
    178 H82        -8.0030   -3.7710    2.9090 ho        1 MOL      0.421727
    179 O27        -2.8240   -4.3230    1.7180 oh        1 MOL     -0.846577
    180 H83        -2.8590   -5.0870    1.1370 ho        1 MOL      0.421727
    181 H84        -1.9030   -4.0650    1.7060 ho        1 MOL      0.421727
@<TRIPOS>BOND
     1    1    2 1   
     2    1    4 1   
     3    1    5 1   
     4    1    6 1   
     5    2    3 2   
     6    2    7 1   
     7    7    8 1   
     8    7   15 1   
     9    8    9 1   
    10    8   11 1   
    11    8   16 1   
    12    9   10 2   
    13    9   19 1   
    14   11   12 1   
    15   11   17 1   
    16   11   18 1   
    17   12   13 1   
    18   12   14 1   
    19   19   20 1   
    20   19   24 1   
    21   20   21 1   
    22   20   23 1   
    23   20   25 1   
    24   21   22 2   
    25   21   29 1   
    26   23   26 1   
    27   23   27 1   
    28   23   28 1   
    29   29   30 1   
    30   29   37 1   
    31   30   31 1   
    32   30   33 1   
    33   30   38 1   
    34   31   32 2   
    35   31   41 1   
    36   33   34 1   
    37   33   39 1   
    38   33   40 1   
    39   34   35 1   
    40   34   36 1   
    41   41   42 1   
    42   41   45 1   
    43   42   43 1   
    44   42   46 1   
    45   42   47 1   
    46   43   44 2   
    47   43   48 1   
    48   48   49 1   
    49   48   56 1   
    50   49   50 1   
    51   49   52 1   
    52   49   57 1   
    53   50   51 2   
    54   50   62 1   
    55   52   53 1   
    56   52   58 1   
    57   52   59 1   
    58   53   54 1   
    59   53   55 2   
    60   54   60 1   
    61   54   61 1   
    62   62   63 1   
    63   62   66 1   
    64   63   64 1   
    65   63   67 1   
    66   63   68 1   
    67   64   65 2   
    68   64   69 1   
    69   69   70 1   
    70   69   76 1   
    71   70   71 1   
    72   70   73 1   
    73   70   77 1   
    74   71   72 2   
    75   71   83 1   
    76   73   74 1   
    77   73   75 1   
    78   73   78 1   
    79   74   80 1   
    80   74   81 1   
    81   74   82 1   
    82   75   79 1   
    83   83   84 1   
    84   83   91 1   
    85   84   85 1   
    86   84   87 1   
    87   84   92 1   
    88   85   86 2   
    89   85  102 1   
    90   87   88 1   
    91   87   89 1   
    92   87   93 1   
    93   88   90 1   
    94   88   94 1   
    95   88   95 1   
    96   89   96 1   
    97   89   97 1   
    98   89   98 1   
    99   90   99 1   
   100   90  100 1   
   101   90  101 1   
   102  102  103 1   
   103  102  110 1   
   104  103  104 1   
   105  103  106 1   
   106  103  111 1   
   107  104  105 2   
   108  104  114 1   
   109  106  107 1   
   110  106  112 1   
   111  106  113 1   
   112  107  108 1   
   113  107  109 1   
   114  114  115 1   
   115  114  125 1   
   116  115  116 1   
   117  115  118 1   
   118  115  126 1   
   119  116  117 2   
   120  116  134 1   
   121  118  119 1   
   122  118  127 1   
   123  118  128 1   
   124  119  120 ar  
   125  119  121 ar  
   126  120  122 ar  
   127  120  129 1   
   128  121  123 ar  
   129  121  130 1   
   130  122  124 ar  
   131  122  131 1   
   132  123  124 ar  
   133  123  132 1   
   134  124  133 1   
   135  134  135 1   
   136  134  140 1   
   137  135  136 1   
   138  135  138 1   
   139  135  141 1   
   140  136  137 2   
   141  136  148 1   
   142  138  139 1   
   143  138  142 1   
   144  138  143 1   
   145  139  140 1   
   146  139  144 1   
   147  139  145 1   
   148  140  146 1   
   149  140  147 1   
   150  148  149 1   
   151  148  157 1   
   152  149  150 1   
   153  149  152 1   
   154  149  158 1   
   155  150  151 2   
   156  150  163 1   
   157  152  153 1   
   158  152  159 1   
   159  152  160 1   
   160  153  154 1   
   161  153  161 1   
   162  153  162 1   
   163  154  155 1   
   164  154  156 1   
   165  163  164 1   
   166  163  168 1   
   167  164  165 1   
   168  164  166 1   
   169  164  167 1   
   170  170  171 1   
   171  170  172 1   
   172  173  174 1   
   173  173  175 1   
   174  176  177 1   
   175  176  178 1   
   176  179  180 1   
   177  179  181 1   
@<TRIPOS>SUBSTRUCTURE
     1 MOL         1 TEMP              0 ****  ****    0 ROOT
