@<TRIPOS>MOLECULE
MOL
  181   177     1     0     0
SMALL
resp


@<TRIPOS>ATOM
      1 C1          0.5920    7.0410   -2.1700 c3        1 MOL     -0.395452
      2 C2          1.7930    6.5650   -1.3640 c         1 MOL      0.704199
      3 O1          1.9660    6.7890   -0.1540 o         1 MOL     -0.584947
      4 H1          0.9370    7.5280   -3.0830 hc        1 MOL      0.098654
      5 H2         -0.0350    6.1880   -2.4280 hc        1 MOL      0.098654
      6 H3          0.0150    7.7510   -1.5770 hc        1 MOL      0.098654
      7 N1          2.7260    5.9400   -2.0550 n         1 MOL     -0.669172
      8 C3          4.0270    5.6310   -1.4730 c3        1 MOL      0.307511
      9 C4          4.0170    4.4210   -0.6260 c         1 MOL      0.597150
     10 O2          3.3050    3.4600   -0.8080 o         1 MOL     -0.593454
     11 C5          5.0160    5.4750   -2.6410 c3        1 MOL     -0.176776
     12 C6          6.4710    5.4420   -2.1810 c         1 MOL      0.746540
     13 O3          7.2600    4.8170   -2.9310 o         1 MOL     -0.729037
     14 O4          6.7620    6.0710   -1.1930 o         1 MOL     -0.729037
     15 H4          2.4920    5.6720   -2.9960 hn        1 MOL      0.317271
     16 H5          4.3390    6.4640   -0.8560 h1        1 MOL      0.042398
     17 H6          4.8700    6.3000   -3.3260 hc        1 MOL      0.004101
     18 H7          4.8010    4.5810   -3.2330 hc        1 MOL      0.004101
     19 N2          4.9330    4.4430    0.3560 n         1 MOL     -0.698844
     20 C7          5.0980    3.5800    1.4970 c3        1 MOL      0.525587
     21 C8          3.8460    3.6610    2.4250 c         1 MOL      0.207609
     22 O5          3.1290    4.7160    2.5400 o         1 MOL     -0.479843
     23 C9          6.3620    4.0280    2.2190 c3        1 MOL     -0.230293
     24 H8          5.6450    5.1240    0.1610 hn        1 MOL      0.303445
     25 H9          5.2550    2.6010    1.0380 h1        1 MOL      0.081290
     26 H10         6.3860    5.0900    2.4910 hc        1 MOL      0.052820
     27 H11         6.5040    3.4300    3.1200 hc        1 MOL      0.052820
     28 H12         7.2240    3.7410    1.6090 hc        1 MOL      0.052820
     29 N3          3.5810    2.7410    3.3120 n         1 MOL     -0.178468
     30 C10         4.3530    1.4840    3.5470 c3        1 MOL     -0.057122
     31 C11         4.3700    0.4290    2.4860 c         1 MOL     -0.253322
     32 O6          3.5500    0.3390    1.5870 o         1 MOL     -0.134127
     33 C12         3.7560    0.7890    4.7560 c3        1 MOL     -0.267254
     34 C13         2.2410    0.7560    4.6970 c         1 MOL      0.724526
     35 O7          1.7170   -0.1900    4.0520 o         1 MOL     -0.664548
     36 O8          1.5860    1.7580    5.0660 o         1 MOL     -0.664548
     37 H13         2.7290    2.9000    3.8250 hn        1 MOL      0.227614
     38 H14         5.3570    1.7650    3.8580 h1        1 MOL      0.158033
     39 H15         4.0940    1.3480    5.6270 hc        1 MOL      0.078163
     40 H16         4.0800   -0.2450    4.8500 hc        1 MOL      0.078163
     41 N4          5.3360   -0.5190    2.6750 n         1 MOL     -0.106505
     42 C14         5.7060   -1.4380    1.5920 c3        1 MOL     -0.256473
     43 C15         6.6380   -0.8150    0.4930 c         1 MOL      0.772247
     44 O9          6.8760    0.3730    0.5170 o         1 MOL     -0.559869
     45 H17         5.9820   -0.4600    3.4440 hn        1 MOL      0.256244
     46 H18         4.7810   -1.7950    1.1360 h1        1 MOL      0.099917
     47 H19         6.3280   -2.2210    2.0310 h1        1 MOL      0.099917
     48 N5          7.1800   -1.5510   -0.4520 n         1 MOL     -0.721538
     49 C16         6.9730   -3.0080   -0.6280 c3        1 MOL      0.217489
     50 C17         5.6930   -3.3420   -1.4380 c         1 MOL      0.466467
     51 O10         5.4850   -4.5110   -1.7300 o         1 MOL     -0.530490
     52 C18         8.2270   -3.6120   -1.3090 c3        1 MOL     -0.372037
     53 C19         8.3300   -3.4140   -2.7800 c         1 MOL      0.634630
     54 N6          8.2450   -4.5380   -3.5040 n         1 MOL     -0.727154
     55 O11         8.4920   -2.3170   -3.3040 o         1 MOL     -0.538715
     56 H20         7.8990   -1.1370   -1.0200 hn        1 MOL      0.368039
     57 H21         6.8490   -3.4460    0.3570 h1        1 MOL      0.054482
     58 H22         8.2410   -4.6910   -1.1600 hc        1 MOL      0.119213
     59 H23         9.1190   -3.0950   -0.9500 hc        1 MOL      0.119213
     60 H24         8.1730   -5.4280   -3.0390 hn        1 MOL      0.356662
     61 H25         8.3960   -4.3800   -4.4880 hn        1 MOL      0.356662
     62 N7          4.8480   -2.3960   -1.8590 n         1 MOL     -0.140542
     63 C20         3.8890   -2.5920   -2.8810 c3        1 MOL     -0.525510
     64 C21         2.7550   -3.6290   -2.5420 c         1 MOL      0.741644
     65 O12         1.9920   -3.9060   -3.4990 o         1 MOL     -0.583902
     66 H26         4.9910   -1.4350   -1.6000 hn        1 MOL      0.272058
     67 H27         4.3290   -2.9680   -3.8010 h1        1 MOL      0.203824
     68 H28         3.3650   -1.6530   -3.0660 h1        1 MOL      0.203824
     69 N8          2.6720   -4.1130   -1.2920 n         1 MOL     -0.564499
     70 C22         1.5860   -4.8790   -0.8440 c3        1 MOL     -0.000820
     71 C23         0.4160   -4.0470   -0.3470 c         1 MOL      0.575898
     72 O13         0.5830   -2.9890    0.2240 o         1 MOL     -0.495520
     73 C24         2.0610   -5.8310    0.2320 c3        1 MOL      0.402919
     74 C25         2.9530   -7.0120   -0.2790 c3        1 MOL     -0.387213
     75 O14         2.7870   -5.2470    1.3020 oh        1 MOL     -0.602922
     76 H29         3.5200   -4.1110   -0.7280 hn        1 MOL      0.300012
     77 H30         1.3000   -5.4300   -1.7400 h1        1 MOL      0.079711
     78 H31         1.1360   -6.2330    0.6280 h1        1 MOL     -0.039050
     79 H32         2.1390   -5.1490    2.0070 ho        1 MOL      0.387636
     80 H33         3.7840   -6.5000   -0.7540 hc        1 MOL      0.097463
     81 H34         3.4170   -7.6080    0.5110 hc        1 MOL      0.097463
     82 H35         2.3670   -7.5580   -1.0250 hc        1 MOL      0.097463
     83 N9         -0.7950   -4.5460   -0.6040 n         1 MOL     -0.425923
     84 C26        -1.9720   -3.6590   -0.6600 c3        1 MOL     -0.042891
     85 C27        -2.7510   -3.7420    0.6080 c         1 MOL      0.559329
     86 O15        -3.0010   -4.8380    1.0980 o         1 MOL     -0.573615
     87 C28        -2.8510   -4.0760   -1.8700 c3        1 MOL      0.067118
     88 C29        -4.1500   -3.2430   -1.9270 c3        1 MOL      0.163378
     89 C30        -1.9880   -3.8040   -3.1440 c3        1 MOL     -0.112253
     90 C31        -4.9540   -3.4570   -3.2070 c3        1 MOL     -0.286575
     91 H36        -0.7820   -5.4500   -1.0580 hn        1 MOL      0.248155
     92 H37        -1.5480   -2.6720   -0.8250 h1        1 MOL      0.115656
     93 H38        -3.0750   -5.1380   -1.8660 hc        1 MOL      0.012977
     94 H39        -3.9150   -2.1780   -1.9120 hc        1 MOL     -0.005784
     95 H40        -4.7850   -3.5320   -1.0920 hc        1 MOL     -0.005784
     96 H41        -2.4830   -4.0510   -4.0890 hc        1 MOL      0.024733
     97 H42        -1.6600   -2.7540   -3.1520 hc        1 MOL      0.024733
     98 H43        -1.1090   -4.4430   -3.1150 hc        1 MOL      0.024733
     99 H44        -4.7010   -4.4530   -3.5670 hc        1 MOL      0.049530
    100 H45        -6.0010   -3.3510   -2.9350 hc        1 MOL      0.049530
    101 H46        -4.6400   -2.7230   -3.9410 hc        1 MOL      0.049530
    102 N10        -3.2240   -2.5960    1.0950 n         1 MOL     -0.420091
    103 C32        -4.0230   -2.5790    2.2480 c3        1 MOL      0.260901
    104 C33        -5.3320   -1.8110    2.1570 c         1 MOL      0.451606
    105 O16        -6.2620   -2.0480    2.9190 o         1 MOL     -0.559234
    106 C34        -3.2010   -2.1720    3.4550 c3        1 MOL      0.072704
    107 C35        -1.7090   -2.4850    3.4310 c         1 MOL      0.633349
    108 O17        -0.8560   -1.7940    2.8250 o         1 MOL     -0.694466
    109 O18        -1.3590   -3.4400    4.1840 o         1 MOL     -0.694466
    110 H47        -3.0350   -1.7010    0.6730 hn        1 MOL      0.083480
    111 H48        -4.3190   -3.5830    2.5570 h1        1 MOL      0.029038
    112 H49        -3.6530   -2.7440    4.2630 hc        1 MOL     -0.047060
    113 H50        -3.4510   -1.1240    3.6640 hc        1 MOL     -0.047060
    114 N11        -5.4960   -0.8450    1.1790 n         1 MOL     -0.581557
    115 C36        -6.6780    0.0090    1.1050 c3        1 MOL      0.553089
    116 C37        -6.3080    1.3370    0.3960 c         1 MOL      0.183090
    117 O19        -6.9160    1.7480   -0.6090 o         1 MOL     -0.460805
    118 C38        -7.7800   -0.8120    0.2890 c3        1 MOL     -0.424503
    119 C39        -9.1900   -0.3050    0.2350 ca        1 MOL      0.142733
    120 C40        -9.7110    0.6370    1.1710 ca        1 MOL     -0.109416
    121 C41       -10.0730   -0.8300   -0.7310 ca        1 MOL     -0.109416
    122 C42       -11.0550    0.8850    1.1820 ca        1 MOL     -0.191333
    123 C43       -11.4730   -0.5410   -0.7070 ca        1 MOL     -0.191333
    124 C44       -11.9900    0.3060    0.3100 ca        1 MOL     -0.073452
    125 H51        -4.7180   -0.5960    0.5810 hn        1 MOL      0.256599
    126 H52        -7.1520    0.3380    2.0360 h1        1 MOL     -0.025687
    127 H53        -7.9210   -1.7990    0.7260 hc        1 MOL      0.140619
    128 H54        -7.2800   -0.9150   -0.6840 hc        1 MOL      0.140619
    129 H55        -9.0990    1.1470    1.9080 ha        1 MOL      0.106013
    130 H56        -9.6260   -1.5260   -1.4250 ha        1 MOL      0.106013
    131 H57       -11.4490    1.7150    1.7510 ha        1 MOL      0.112562
    132 H58       -12.1440   -0.8310   -1.5060 ha        1 MOL      0.112562
    133 H59       -13.0400    0.4870    0.4890 ha        1 MOL      0.090363
    134 N12        -5.2130    2.0620    0.8540 n         1 MOL     -0.019791
    135 C45        -4.7890    3.3920    0.3370 c3        1 MOL     -0.243676
    136 C46        -4.4790    3.3720   -1.1650 c         1 MOL      0.405195
    137 O20        -4.3880    4.4400   -1.7740 o         1 MOL     -0.527050
    138 C47        -3.5780    3.8540    1.2780 c3        1 MOL      0.066339
    139 C48        -3.9590    3.1540    2.5690 c3        1 MOL     -0.024194
    140 C49        -4.4340    1.7510    2.1350 c3        1 MOL     -0.144838
    141 H60        -5.6210    4.0560    0.5570 h1        1 MOL      0.134294
    142 H61        -2.6180    3.5000    0.9090 hc        1 MOL      0.034708
    143 H62        -3.4130    4.9160    1.4500 hc        1 MOL      0.034708
    144 H63        -3.1130    3.1030    3.2610 hc        1 MOL      0.014305
    145 H64        -4.7760    3.6940    3.0440 hc        1 MOL      0.014305
    146 H65        -3.4980    1.2250    2.0050 h1        1 MOL      0.114088
    147 H66        -5.0190    1.3180    2.9460 h1        1 MOL      0.114088
    148 N13        -4.1200    2.2020   -1.6930 n         1 MOL     -0.133517
    149 C50        -3.7450    1.8660   -3.0740 c3        1 MOL     -0.177168
    150 C51        -5.0070    2.0800   -3.9720 c         1 MOL      0.546653
    151 O21        -4.9270    2.7530   -4.9730 o         1 MOL     -0.551726
    152 C52        -2.9880    0.5670   -3.1290 c3        1 MOL     -0.215596
    153 C53        -1.6820    0.4940   -2.2180 c3        1 MOL      0.110670
    154 C54        -2.0350    0.1070   -0.7320 c         1 MOL      0.521833
    155 O22        -1.1030   -0.1990    0.0140 o         1 MOL     -0.603476
    156 O23        -3.2620   -0.0220   -0.4370 o         1 MOL     -0.603476
    157 H67        -3.9920    1.4220   -1.0530 hn        1 MOL      0.287817
    158 H68        -3.0950    2.6670   -3.4360 h1        1 MOL      0.118001
    159 H69        -2.5510    0.6130   -4.1340 hc        1 MOL      0.062091
    160 H70        -3.6370   -0.2740   -2.9010 hc        1 MOL      0.062091
    161 H71        -1.2340    1.4880   -2.1850 hc        1 MOL      0.000767
    162 H72        -0.8780   -0.0970   -2.6560 hc        1 MOL      0.000767
    163 N14        -6.1980    1.6090   -3.5420 n         1 MOL     -0.276125
    164 C55        -7.4960    1.8660   -4.1480 c3        1 MOL     -0.145541
    165 H73        -8.0940    2.4810   -3.4760 h1        1 MOL      0.073779
    166 H74        -7.3570    2.3910   -5.0940 h1        1 MOL      0.073779
    167 H75        -8.0070    0.9210   -4.3280 h1        1 MOL      0.073779
    168 H76        -6.2420    1.1610   -2.6350 hn        1 MOL      0.231031
    169 Ca1         0.9720   -0.5320    1.5050 Ca        1 MOL      1.754655
    170 O24         1.2990    2.1750    0.3320 oh        1 MOL     -0.931314
    171 H77         0.7960    2.8070    0.8400 ho        1 MOL      0.434429
    172 H78         1.8780    2.7070   -0.2130 ho        1 MOL      0.434429
    173 O25         2.1480   -0.0820   -0.9080 oh        1 MOL     -0.931314
    174 H79         1.5290    0.3340   -1.4990 ho        1 MOL      0.434429
    175 H80         2.9610    0.4100   -1.0240 ho        1 MOL      0.434429
    176 O26         0.0360    1.6830    2.8170 oh        1 MOL     -0.931314
    177 H81         0.1450    2.6200    2.6440 ho        1 MOL      0.434429
    178 H82         0.4400    1.5390    3.6670 ho        1 MOL      0.434429
    179 O27         2.5120   -2.5140    2.4710 oh        1 MOL     -0.931314
    180 H83         3.3830   -2.6520    2.8490 ho        1 MOL      0.434429
    181 H84         1.9990   -3.2650    2.7590 ho        1 MOL      0.434429
@<TRIPOS>BOND
     1    1    2 1   
     2    1    4 1   
     3    1    5 1   
     4    1    6 1   
     5    2    3 2   
     6    2    7 1   
     7    7    8 1   
     8    7   15 1   
     9    8    9 1   
    10    8   11 1   
    11    8   16 1   
    12    9   10 2   
    13    9   19 1   
    14   11   12 1   
    15   11   17 1   
    16   11   18 1   
    17   12   13 1   
    18   12   14 1   
    19   19   20 1   
    20   19   24 1   
    21   20   21 1   
    22   20   23 1   
    23   20   25 1   
    24   21   22 2   
    25   21   29 1   
    26   23   26 1   
    27   23   27 1   
    28   23   28 1   
    29   29   30 1   
    30   29   37 1   
    31   30   31 1   
    32   30   33 1   
    33   30   38 1   
    34   31   32 2   
    35   31   41 1   
    36   33   34 1   
    37   33   39 1   
    38   33   40 1   
    39   34   35 1   
    40   34   36 1   
    41   41   42 1   
    42   41   45 1   
    43   42   43 1   
    44   42   46 1   
    45   42   47 1   
    46   43   44 2   
    47   43   48 1   
    48   48   49 1   
    49   48   56 1   
    50   49   50 1   
    51   49   52 1   
    52   49   57 1   
    53   50   51 2   
    54   50   62 1   
    55   52   53 1   
    56   52   58 1   
    57   52   59 1   
    58   53   54 1   
    59   53   55 2   
    60   54   60 1   
    61   54   61 1   
    62   62   63 1   
    63   62   66 1   
    64   63   64 1   
    65   63   67 1   
    66   63   68 1   
    67   64   65 2   
    68   64   69 1   
    69   69   70 1   
    70   69   76 1   
    71   70   71 1   
    72   70   73 1   
    73   70   77 1   
    74   71   72 2   
    75   71   83 1   
    76   73   74 1   
    77   73   75 1   
    78   73   78 1   
    79   74   80 1   
    80   74   81 1   
    81   74   82 1   
    82   75   79 1   
    83   83   84 1   
    84   83   91 1   
    85   84   85 1   
    86   84   87 1   
    87   84   92 1   
    88   85   86 2   
    89   85  102 1   
    90   87   88 1   
    91   87   89 1   
    92   87   93 1   
    93   88   90 1   
    94   88   94 1   
    95   88   95 1   
    96   89   96 1   
    97   89   97 1   
    98   89   98 1   
    99   90   99 1   
   100   90  100 1   
   101   90  101 1   
   102  102  103 1   
   103  102  110 1   
   104  103  104 1   
   105  103  106 1   
   106  103  111 1   
   107  104  105 2   
   108  104  114 1   
   109  106  107 1   
   110  106  112 1   
   111  106  113 1   
   112  107  108 1   
   113  107  109 1   
   114  114  115 1   
   115  114  125 1   
   116  115  116 1   
   117  115  118 1   
   118  115  126 1   
   119  116  117 2   
   120  116  134 1   
   121  118  119 1   
   122  118  127 1   
   123  118  128 1   
   124  119  120 ar  
   125  119  121 ar  
   126  120  122 ar  
   127  120  129 1   
   128  121  123 ar  
   129  121  130 1   
   130  122  124 ar  
   131  122  131 1   
   132  123  124 ar  
   133  123  132 1   
   134  124  133 1   
   135  134  135 1   
   136  134  140 1   
   137  135  136 1   
   138  135  138 1   
   139  135  141 1   
   140  136  137 2   
   141  136  148 1   
   142  138  139 1   
   143  138  142 1   
   144  138  143 1   
   145  139  140 1   
   146  139  144 1   
   147  139  145 1   
   148  140  146 1   
   149  140  147 1   
   150  148  149 1   
   151  148  157 1   
   152  149  150 1   
   153  149  152 1   
   154  149  158 1   
   155  150  151 2   
   156  150  163 1   
   157  152  153 1   
   158  152  159 1   
   159  152  160 1   
   160  153  154 1   
   161  153  161 1   
   162  153  162 1   
   163  154  155 1   
   164  154  156 1   
   165  163  164 1   
   166  163  168 1   
   167  164  165 1   
   168  164  166 1   
   169  164  167 1   
   170  170  171 1   
   171  170  172 1   
   172  173  174 1   
   173  173  175 1   
   174  176  177 1   
   175  176  178 1   
   176  179  180 1   
   177  179  181 1   
@<TRIPOS>SUBSTRUCTURE
     1 MOL         1 TEMP              0 ****  ****    0 ROOT
