@<TRIPOS>MOLECULE
MOL
  175   173     1     0     0
SMALL
resp


@<TRIPOS>ATOM
      1 C1         -6.6400    7.9600    2.2730 c3        1 MOL     -0.355025
      2 C2         -7.3440    7.3580    1.1130 c         1 MOL      0.662437
      3 O1         -7.5260    7.9900    0.0980 o         1 MOL     -0.602094
      4 H1         -6.5150    9.0300    2.1050 hc        1 MOL      0.079802
      5 H2         -7.2260    7.8010    3.1780 hc        1 MOL      0.079802
      6 H3         -5.6610    7.4940    2.3870 hc        1 MOL      0.079802
      7 N1         -7.8450    6.1440    1.2430 n         1 MOL     -0.398566
      8 C3         -8.6530    5.3840    0.2650 c3        1 MOL      0.109253
      9 C4         -7.8760    4.4100   -0.5860 c         1 MOL      0.567500
     10 O2         -8.4380    3.9530   -1.5310 o         1 MOL     -0.527173
     11 C5         -9.6340    4.5990    1.1650 c3        1 MOL     -0.053285
     12 C6        -10.8520    3.9700    0.4390 c         1 MOL      0.736942
     13 O3        -11.3610    4.6180   -0.5360 o         1 MOL     -0.741569
     14 O4        -11.2360    2.9280    0.9160 o         1 MOL     -0.741569
     15 H4         -7.6080    5.7090    2.1150 hn        1 MOL      0.218516
     16 H5         -9.2290    6.0470   -0.3710 h1        1 MOL      0.060390
     17 H6        -10.0700    5.4090    1.7530 hc        1 MOL     -0.036852
     18 H7         -9.1530    3.8600    1.7930 hc        1 MOL     -0.036852
     19 N2         -6.6060    4.0740   -0.2160 n         1 MOL     -0.584716
     20 C7         -5.6750    3.3090   -1.0100 c3        1 MOL      0.274677
     21 C8         -4.8450    2.4880   -0.0470 c         1 MOL      0.520995
     22 O5         -4.1620    3.0210    0.7610 o         1 MOL     -0.539489
     23 C9         -4.8300    4.2440   -1.7690 c3        1 MOL     -0.216468
     24 H8         -6.1890    4.4920    0.6030 hn        1 MOL      0.248308
     25 H9         -6.1770    2.6680   -1.7290 h1        1 MOL      0.042144
     26 H10        -5.3680    4.9650   -2.3730 hc        1 MOL      0.056031
     27 H11        -4.3430    4.8970   -1.0410 hc        1 MOL      0.056031
     28 H12        -4.0500    3.8260   -2.4100 hc        1 MOL      0.056031
     29 N3         -4.7580    1.1750   -0.1670 n         1 MOL     -0.344362
     30 C10        -5.2970    0.2350   -1.1440 c3        1 MOL     -0.170222
     31 C11        -5.5620   -1.1400   -0.5370 c         1 MOL      0.575136
     32 O6         -4.7910   -1.5310    0.2750 o         1 MOL     -0.483370
     33 C12        -4.4240    0.1130   -2.4060 c3        1 MOL     -0.233898
     34 C13        -3.0370   -0.4040   -2.3090 c         1 MOL      0.810192
     35 O7         -2.1200    0.4570   -2.0310 o         1 MOL     -0.728721
     36 O8         -2.8240   -1.5840   -2.5020 o         1 MOL     -0.728721
     37 H13        -4.2990    0.7250    0.6170 hn        1 MOL      0.243023
     38 H14        -6.3040    0.6140   -1.3330 h1        1 MOL      0.089237
     39 H15        -4.3680    1.1650   -2.6930 hc        1 MOL      0.061335
     40 H16        -4.9130   -0.3470   -3.2590 hc        1 MOL      0.061335
     41 N4         -6.5790   -1.8760   -1.0390 n         1 MOL     -0.413938
     42 C14        -6.9400   -3.2160   -0.5390 c3        1 MOL      0.085622
     43 C15        -6.8650   -4.3450   -1.5000 c         1 MOL      0.632571
     44 O9         -7.9030   -4.7720   -1.9660 o         1 MOL     -0.566107
     45 H17        -7.1610   -1.4560   -1.7430 hn        1 MOL      0.307931
     46 H18        -8.0210   -3.2680   -0.4050 h1        1 MOL      0.007151
     47 H19        -6.2620   -3.3040    0.3080 h1        1 MOL      0.007151
     48 N5         -5.7040   -4.8670   -1.8760 n         1 MOL     -0.609694
     49 C16        -4.4420   -4.5730   -1.2850 c3        1 MOL      0.238995
     50 C17        -4.2550   -5.3310    0.0360 c         1 MOL      0.450900
     51 O10        -4.4220   -6.5490    0.0250 o         1 MOL     -0.557206
     52 C18        -3.3230   -4.6660   -2.3440 c3        1 MOL      0.034894
     53 C19        -1.8910   -4.3140   -1.8910 c         1 MOL      0.342971
     54 N6         -0.8060   -4.6380   -2.5340 n         1 MOL     -0.739339
     55 O11        -1.6840   -3.7120   -0.8550 o         1 MOL     -0.274330
     56 H20        -5.7290   -5.4930   -2.6740 hn        1 MOL      0.319986
     57 H21        -4.3930   -3.5180   -0.9970 h1        1 MOL     -0.077279
     58 H22        -3.6380   -4.1110   -3.2280 hc        1 MOL      0.017154
     59 H23        -3.2950   -5.6920   -2.7000 hc        1 MOL      0.017154
     60 H24        -0.9450   -5.3280   -3.2580 hn        1 MOL      0.356012
     61 H25         0.0450   -4.3520   -2.0760 hn        1 MOL      0.356012
     62 N7         -3.7230   -4.6510    1.0510 n         1 MOL     -0.123395
     63 C20        -3.4570   -5.3160    2.3260 c3        1 MOL     -0.280401
     64 C21        -2.0220   -5.4120    2.6830 c         1 MOL      0.662015
     65 O12        -1.8460   -6.0130    3.7180 o         1 MOL     -0.610811
     66 H26        -3.4870   -3.6930    0.8340 hn        1 MOL      0.160572
     67 H27        -3.8250   -6.3360    2.3460 h1        1 MOL      0.121752
     68 H28        -3.9330   -4.6910    3.0720 h1        1 MOL      0.121752
     69 N8         -1.0350   -4.9060    1.9610 n         1 MOL     -0.234948
     70 C22         0.3990   -4.9860    2.2990 c3        1 MOL     -0.114014
     71 C23         1.1350   -3.6500    2.0270 c         1 MOL      0.389907
     72 O13         0.6720   -2.9010    1.1330 o         1 MOL     -0.434863
     73 C24         1.0550   -6.0680    1.4880 c3        1 MOL      0.434326
     74 C25         0.5800   -7.4980    1.7650 c3        1 MOL     -0.588457
     75 O14         0.8120   -5.8140    0.1120 oh        1 MOL     -0.584038
     76 H29        -1.2680   -4.4360    1.1000 hn        1 MOL      0.083523
     77 H30         0.6010   -5.0690    3.3650 h1        1 MOL      0.050401
     78 H31         2.1280   -5.9990    1.6520 h1        1 MOL     -0.017158
     79 H32         1.5020   -5.2690   -0.2540 ho        1 MOL      0.380285
     80 H33         0.6340   -7.7300    2.8250 hc        1 MOL      0.156738
     81 H34        -0.4210   -7.6290    1.3490 hc        1 MOL      0.156738
     82 H35         1.3410   -8.0770    1.2480 hc        1 MOL      0.156738
     83 N9          2.2740   -3.3870    2.6980 n         1 MOL     -0.292460
     84 C26         3.0530   -2.2010    2.5670 c3        1 MOL      0.076513
     85 C27         3.9850   -2.5930    1.4350 c         1 MOL      0.288784
     86 O15         4.7610   -3.5350    1.5560 o         1 MOL     -0.526772
     87 C28         3.7930   -1.9540    3.8690 c3        1 MOL      0.145041
     88 C29         4.4770   -0.5820    4.0080 c3        1 MOL      0.077220
     89 C30         2.8040   -2.0440    5.0340 c3        1 MOL     -0.488644
     90 C31         5.5240   -0.1660    3.0030 c3        1 MOL     -0.296466
     91 H36         2.7390   -4.0700    3.2920 hn        1 MOL      0.265497
     92 H37         2.4770   -1.3180    2.2890 h1        1 MOL      0.063361
     93 H38         4.5480   -2.7270    3.8780 hc        1 MOL      0.009988
     94 H39         5.0140   -0.5390    4.9510 hc        1 MOL      0.003743
     95 H40         3.7440    0.2190    4.1220 hc        1 MOL      0.003743
     96 H41         2.5540   -3.1020    5.1030 hc        1 MOL      0.118735
     97 H42         3.2180   -1.6560    5.9640 hc        1 MOL      0.118735
     98 H43         1.9540   -1.4030    4.7940 hc        1 MOL      0.118735
     99 H44         6.0090   -1.0860    2.6890 hc        1 MOL      0.066237
    100 H45         5.0540    0.3230    2.1460 hc        1 MOL      0.066237
    101 H46         6.1500    0.6210    3.4060 hc        1 MOL      0.066237
    102 N10         3.8720   -1.9450    0.2430 n         1 MOL     -0.082612
    103 C32         4.5560   -2.3250   -1.0500 c3        1 MOL      0.105495
    104 C33         5.6190   -1.3690   -1.5330 c         1 MOL      0.552586
    105 O16         6.1870   -1.6070   -2.6090 o         1 MOL     -0.549516
    106 C34         3.5300   -2.6670   -2.1150 c3        1 MOL     -0.335819
    107 C35         2.5080   -3.6820   -1.7290 c         1 MOL      0.800791
    108 O17         2.7780   -4.9080   -1.7340 o         1 MOL     -0.680749
    109 O18         1.3300   -3.3290   -1.6470 o         1 MOL     -0.680749
    110 H47         3.0990   -1.2900    0.2620 hn        1 MOL      0.043811
    111 H48         5.1160   -3.2200   -0.8010 h1        1 MOL      0.057598
    112 H49         4.0940   -2.9790   -2.9990 hc        1 MOL      0.068974
    113 H50         2.9360   -1.7740   -2.2960 hc        1 MOL      0.068974
    114 N11         5.8430   -0.3320   -0.7420 n         1 MOL     -0.427177
    115 C36         6.8370    0.6650   -1.0980 c3        1 MOL      0.091589
    116 C37         6.4110    2.0410   -0.6070 c         1 MOL      0.393260
    117 O19         6.1250    2.1100    0.5700 o         1 MOL     -0.463061
    118 C38         8.1960    0.1760   -0.5350 c3        1 MOL     -0.286256
    119 C39         9.3480    1.0740   -0.8560 ca        1 MOL      0.111919
    120 C40         9.6140    2.1340    0.0850 ca        1 MOL     -0.134750
    121 C41         9.9950    1.0950   -2.1120 ca        1 MOL     -0.134750
    122 C42        10.6890    3.0260   -0.1280 ca        1 MOL     -0.142402
    123 C43        10.9790    2.0580   -2.4220 ca        1 MOL     -0.142402
    124 C44        11.2960    3.0030   -1.4010 ca        1 MOL     -0.111602
    125 H51         5.2530   -0.2200    0.0690 hn        1 MOL      0.244638
    126 H52         6.8770    0.7250   -2.1760 h1        1 MOL      0.064509
    127 H53         8.3900   -0.8480   -0.8710 hc        1 MOL      0.121218
    128 H54         8.0770    0.1440    0.5470 hc        1 MOL      0.121218
    129 H55         9.0410    2.1190    0.9990 ha        1 MOL      0.114235
    130 H56         9.6590    0.3770   -2.8500 ha        1 MOL      0.114235
    131 H57        10.8080    3.8140    0.5900 ha        1 MOL      0.124998
    132 H58        11.3650    2.1190   -3.4260 ha        1 MOL      0.124998
    133 H59        11.9990    3.8290   -1.5020 ha        1 MOL      0.094989
    134 N12         6.3710    3.1370   -1.4380 n         1 MOL     -0.020417
    135 C45         6.2350    4.5140   -0.9670 c3        1 MOL     -0.218359
    136 C46         4.9980    4.9610   -0.1570 c         1 MOL      0.430705
    137 O20         4.9240    6.0390    0.4820 o         1 MOL     -0.531543
    138 C47         6.4440    5.4530   -2.1660 c3        1 MOL      0.008106
    139 C48         6.1410    4.5420   -3.3050 c3        1 MOL     -0.043791
    140 C49         6.7960    3.2500   -2.8260 c3        1 MOL     -0.099504
    141 H60         7.1060    4.6950   -0.3390 h1        1 MOL      0.119364
    142 H61         5.7200    6.2580   -2.2960 hc        1 MOL      0.050291
    143 H62         7.4190    5.9360   -2.2310 hc        1 MOL      0.050291
    144 H63         5.0770    4.3170   -3.4190 hc        1 MOL      0.039947
    145 H64         6.6580    4.8430   -4.2180 hc        1 MOL      0.039947
    146 H65         6.4890    2.3520   -3.3680 h1        1 MOL      0.068424
    147 H66         7.8870    3.2730   -2.8420 h1        1 MOL      0.068424
    148 N13         3.9760    4.0770    0.0090 n         1 MOL     -0.097033
    149 C50         2.6970    4.3280    0.6970 c3        1 MOL     -0.292434
    150 C51         2.9280    4.7430    2.1640 c         1 MOL      0.547420
    151 O21         2.0320    5.4110    2.7130 o         1 MOL     -0.550874
    152 C52         1.6650    3.1490    0.5810 c3        1 MOL     -0.073948
    153 C53         2.1190    1.7640    1.1110 c3        1 MOL     -0.150893
    154 C54         1.2060    0.7620    0.4410 c         1 MOL      0.703765
    155 O22         1.6540    0.0660   -0.5130 o         1 MOL     -0.732767
    156 O23         0.0050    0.4900    0.7140 o         1 MOL     -0.732767
    157 H67         4.0840    3.1570   -0.3970 hn        1 MOL      0.153268
    158 H68         2.1410    5.1380    0.2290 h1        1 MOL      0.150532
    159 H69         1.3380    3.0220   -0.4510 hc        1 MOL      0.099961
    160 H70         0.7790    3.4650    1.1320 hc        1 MOL      0.099961
    161 H71         1.9540    1.6810    2.1760 hc        1 MOL      0.051850
    162 H72         3.1680    1.5700    0.8830 hc        1 MOL      0.051850
    163 N14         3.9780    4.3150    2.8430 n         1 MOL     -0.147703
    164 C55         4.2740    4.6100    4.2520 c3        1 MOL     -0.273118
    165 H73         4.4090    5.6850    4.3770 h1        1 MOL      0.110109
    166 H74         3.4460    4.2740    4.8760 h1        1 MOL      0.110109
    167 H75         5.1860    4.0930    4.5480 h1        1 MOL      0.110109
    168 H76         4.6550    3.8100    2.2940 hn        1 MOL      0.187791
    169 Ca1        -0.3090   -1.4520   -1.0360 Ca        1 MOL      1.658394
    170 O24         0.4030   -1.1830   -3.6130 oh        1 MOL     -0.877131
    171 H77         1.2190   -1.6570   -3.7620 ho        1 MOL      0.421726
    172 H78        -0.0140   -1.1490   -4.4710 ho        1 MOL      0.421726
    173 O25        -2.0040   -1.4160    0.8310 oh        1 MOL     -0.877131
    174 H79        -2.0850   -0.5610    1.2690 ho        1 MOL      0.421726
    175 H80        -2.9100   -1.7120    0.7290 ho        1 MOL      0.421726
@<TRIPOS>BOND
     1    1    2 1   
     2    1    4 1   
     3    1    5 1   
     4    1    6 1   
     5    2    3 2   
     6    2    7 1   
     7    7    8 1   
     8    7   15 1   
     9    8    9 1   
    10    8   11 1   
    11    8   16 1   
    12    9   10 2   
    13    9   19 1   
    14   11   12 1   
    15   11   17 1   
    16   11   18 1   
    17   12   13 1   
    18   12   14 1   
    19   19   20 1   
    20   19   24 1   
    21   20   21 1   
    22   20   23 1   
    23   20   25 1   
    24   21   22 2   
    25   21   29 1   
    26   23   26 1   
    27   23   27 1   
    28   23   28 1   
    29   29   30 1   
    30   29   37 1   
    31   30   31 1   
    32   30   33 1   
    33   30   38 1   
    34   31   32 2   
    35   31   41 1   
    36   33   34 1   
    37   33   39 1   
    38   33   40 1   
    39   34   35 1   
    40   34   36 1   
    41   41   42 1   
    42   41   45 1   
    43   42   43 1   
    44   42   46 1   
    45   42   47 1   
    46   43   44 2   
    47   43   48 1   
    48   48   49 1   
    49   48   56 1   
    50   49   50 1   
    51   49   52 1   
    52   49   57 1   
    53   50   51 2   
    54   50   62 1   
    55   52   53 1   
    56   52   58 1   
    57   52   59 1   
    58   53   54 1   
    59   53   55 2   
    60   54   60 1   
    61   54   61 1   
    62   62   63 1   
    63   62   66 1   
    64   63   64 1   
    65   63   67 1   
    66   63   68 1   
    67   64   65 2   
    68   64   69 1   
    69   69   70 1   
    70   69   76 1   
    71   70   71 1   
    72   70   73 1   
    73   70   77 1   
    74   71   72 2   
    75   71   83 1   
    76   73   74 1   
    77   73   75 1   
    78   73   78 1   
    79   74   80 1   
    80   74   81 1   
    81   74   82 1   
    82   75   79 1   
    83   83   84 1   
    84   83   91 1   
    85   84   85 1   
    86   84   87 1   
    87   84   92 1   
    88   85   86 2   
    89   85  102 1   
    90   87   88 1   
    91   87   89 1   
    92   87   93 1   
    93   88   90 1   
    94   88   94 1   
    95   88   95 1   
    96   89   96 1   
    97   89   97 1   
    98   89   98 1   
    99   90   99 1   
   100   90  100 1   
   101   90  101 1   
   102  102  103 1   
   103  102  110 1   
   104  103  104 1   
   105  103  106 1   
   106  103  111 1   
   107  104  105 2   
   108  104  114 1   
   109  106  107 1   
   110  106  112 1   
   111  106  113 1   
   112  107  108 1   
   113  107  109 1   
   114  114  115 1   
   115  114  125 1   
   116  115  116 1   
   117  115  118 1   
   118  115  126 1   
   119  116  117 2   
   120  116  134 1   
   121  118  119 1   
   122  118  127 1   
   123  118  128 1   
   124  119  120 ar  
   125  119  121 ar  
   126  120  122 ar  
   127  120  129 1   
   128  121  123 ar  
   129  121  130 1   
   130  122  124 ar  
   131  122  131 1   
   132  123  124 ar  
   133  123  132 1   
   134  124  133 1   
   135  134  135 1   
   136  134  140 1   
   137  135  136 1   
   138  135  138 1   
   139  135  141 1   
   140  136  137 2   
   141  136  148 1   
   142  138  139 1   
   143  138  142 1   
   144  138  143 1   
   145  139  140 1   
   146  139  144 1   
   147  139  145 1   
   148  140  146 1   
   149  140  147 1   
   150  148  149 1   
   151  148  157 1   
   152  149  150 1   
   153  149  152 1   
   154  149  158 1   
   155  150  151 2   
   156  150  163 1   
   157  152  153 1   
   158  152  159 1   
   159  152  160 1   
   160  153  154 1   
   161  153  161 1   
   162  153  162 1   
   163  154  155 1   
   164  154  156 1   
   165  163  164 1   
   166  163  168 1   
   167  164  165 1   
   168  164  166 1   
   169  164  167 1   
   170  170  171 1   
   171  170  172 1   
   172  173  174 1   
   173  173  175 1   
@<TRIPOS>SUBSTRUCTURE
     1 MOL         1 TEMP              0 ****  ****    0 ROOT
