@<TRIPOS>MOLECULE
MOL
  175   173     1     0     0
SMALL
resp


@<TRIPOS>ATOM
      1 C1         -6.8970    7.8560    1.2550 c3        1 MOL     -0.334392
      2 C2         -7.8980    6.9730    0.4780 c         1 MOL      0.684411
      3 O1         -8.2070    7.2200   -0.6770 o         1 MOL     -0.592232
      4 H1         -6.6280    8.7210    0.6470 hc        1 MOL      0.075306
      5 H2         -7.3550    8.1950    2.1840 hc        1 MOL      0.075306
      6 H3         -6.0000    7.2790    1.4800 hc        1 MOL      0.075306
      7 N1         -8.3790    5.9290    1.0910 n         1 MOL     -0.571900
      8 C3         -9.4030    5.1060    0.4820 c3        1 MOL      0.367464
      9 C4         -8.9240    3.9780   -0.3870 c         1 MOL      0.438144
     10 O2         -9.6590    3.4770   -1.2770 o         1 MOL     -0.501436
     11 C5        -10.3110    4.6150    1.5580 c3        1 MOL     -0.181300
     12 C6        -11.6710    4.0650    1.0430 c         1 MOL      0.599249
     13 O3        -12.5020    4.9340    0.6010 o         1 MOL     -0.689918
     14 O4        -11.8410    2.8190    0.9570 o         1 MOL     -0.689918
     15 H4         -7.9460    5.7250    1.9860 hn        1 MOL      0.290067
     16 H5        -10.0270    5.7440   -0.1510 h1        1 MOL      0.016011
     17 H6        -10.5560    5.4790    2.1870 hc        1 MOL     -0.010556
     18 H7         -9.7140    3.9400    2.1630 hc        1 MOL     -0.010556
     19 N2         -7.7030    3.5100   -0.1640 n         1 MOL     -0.466095
     20 C7         -6.9680    2.4090   -0.8510 c3        1 MOL      0.295708
     21 C8         -5.6860    1.9770    0.0070 c         1 MOL      0.511665
     22 O5         -5.1740    2.7180    0.8480 o         1 MOL     -0.524681
     23 C9         -6.6650    2.9810   -2.2630 c3        1 MOL     -0.329558
     24 H8         -7.3070    3.8830    0.6790 hn        1 MOL      0.201506
     25 H9         -7.6880    1.5880   -0.9240 h1        1 MOL      0.034848
     26 H10        -6.4200    2.1280   -2.8990 hc        1 MOL      0.097796
     27 H11        -7.5140    3.5720   -2.5980 hc        1 MOL      0.097796
     28 H12        -5.8530    3.6770   -2.0480 hc        1 MOL      0.097796
     29 N3         -5.1020    0.7600   -0.1090 n         1 MOL     -0.536271
     30 C10        -5.4280   -0.1920   -1.1470 c3        1 MOL      0.006589
     31 C11        -5.5630   -1.6270   -0.6650 c         1 MOL      0.533798
     32 O6         -5.1230   -1.9030    0.4400 o         1 MOL     -0.543211
     33 C12        -4.3760   -0.1340   -2.2550 c3        1 MOL      0.037350
     34 C13        -2.9310   -0.5340   -1.8530 c         1 MOL      0.540716
     35 O7         -2.4730   -1.6810   -2.1240 o         1 MOL     -0.662044
     36 O8         -2.2640    0.2560   -1.2120 o         1 MOL     -0.662044
     37 H13        -4.2770    0.6320    0.4610 hn        1 MOL      0.358312
     38 H14        -6.3560    0.1080   -1.6350 h1        1 MOL      0.030813
     39 H15        -4.3190    0.8920   -2.6200 hc        1 MOL     -0.025524
     40 H16        -4.7060   -0.8480   -3.0010 hc        1 MOL     -0.025524
     41 N4         -6.0850   -2.5010   -1.4750 n         1 MOL     -0.362890
     42 C14        -6.6700   -3.7850   -1.1410 c3        1 MOL      0.049862
     43 C15        -6.2380   -5.0310   -1.9030 c         1 MOL      0.486547
     44 O9         -7.0190   -5.5830   -2.6280 o         1 MOL     -0.533518
     45 H17        -6.2880   -2.1590   -2.4050 hn        1 MOL      0.304209
     46 H18        -7.7400   -3.6200   -1.1860 h1        1 MOL      0.051959
     47 H19        -6.3960   -4.0380   -0.1210 h1        1 MOL      0.051959
     48 N5         -4.8970   -5.3960   -2.0160 n         1 MOL     -0.453720
     49 C16        -3.7060   -4.9060   -1.3780 c3        1 MOL      0.014891
     50 C17        -3.4690   -5.4940    0.0850 c         1 MOL      0.626669
     51 O10        -3.4330   -6.7120    0.2470 o         1 MOL     -0.571464
     52 C18        -2.5310   -5.2440   -2.3710 c3        1 MOL     -0.068684
     53 C19        -1.1440   -4.7270   -1.9060 c         1 MOL      0.563742
     54 N6         -0.0880   -5.1970   -2.4800 n         1 MOL     -0.588425
     55 O11        -1.0510   -3.8820   -1.0040 o         1 MOL     -0.734547
     56 H20        -4.8070   -6.2510   -2.5350 hn        1 MOL      0.290516
     57 H21        -3.8130   -3.8250   -1.2840 h1        1 MOL      0.052412
     58 H22        -2.7530   -4.8590   -3.3740 hc        1 MOL      0.038399
     59 H23        -2.5250   -6.3290   -2.4280 hc        1 MOL      0.038399
     60 H24        -0.1150   -5.9240   -3.1840 hn        1 MOL      0.324581
     61 H25         0.7550   -4.7970   -2.1000 hn        1 MOL      0.324581
     62 N7         -3.2930   -4.6550    1.1140 n         1 MOL     -0.379205
     63 C20        -3.0050   -5.1270    2.5430 c3        1 MOL     -0.301779
     64 C21        -1.5800   -5.2980    3.0350 c         1 MOL      0.631898
     65 O12        -1.2900   -5.5530    4.1780 o         1 MOL     -0.594070
     66 H26        -3.1700   -3.6740    0.8940 hn        1 MOL      0.331224
     67 H27        -3.3430   -6.1530    2.6660 h1        1 MOL      0.140607
     68 H28        -3.4920   -4.4690    3.2570 h1        1 MOL      0.140607
     69 N8         -0.6070   -4.9040    2.2170 n         1 MOL     -0.312006
     70 C22         0.8250   -5.1200    2.3220 c3        1 MOL     -0.010467
     71 C23         1.5300   -3.7820    1.9100 c         1 MOL      0.265897
     72 O13         1.0660   -2.9560    1.1690 o         1 MOL     -0.430732
     73 C24         1.3420   -6.2600    1.5230 c3        1 MOL      0.373509
     74 C25         0.8400   -7.6210    2.0820 c3        1 MOL     -0.501689
     75 O14         0.8020   -6.2080    0.2270 oh        1 MOL     -0.599280
     76 H29        -0.9390   -4.5330    1.3370 hn        1 MOL      0.299964
     77 H30         1.0850   -5.2600    3.3720 h1        1 MOL      0.059939
     78 H31         2.4310   -6.2360    1.5080 h1        1 MOL      0.000536
     79 H32         1.4560   -5.8120   -0.3430 ho        1 MOL      0.394976
     80 H33        -0.1640   -7.8940    1.7470 hc        1 MOL      0.129512
     81 H34         1.5500   -8.4000    1.7880 hc        1 MOL      0.129512
     82 H35         0.8140   -7.7980    3.1540 hc        1 MOL      0.129512
     83 N9          2.6970   -3.6550    2.5020 n         1 MOL     -0.134265
     84 C26         3.6490   -2.5500    2.2640 c3        1 MOL     -0.148703
     85 C27         4.4810   -2.7460    1.0290 c         1 MOL      0.367854
     86 O15         5.4180   -3.5230    0.9690 o         1 MOL     -0.548941
     87 C28         4.5010   -2.2430    3.5470 c3        1 MOL      0.229932
     88 C29         5.6080   -1.2580    3.2620 c3        1 MOL     -0.102722
     89 C30         3.6210   -1.8820    4.7630 c3        1 MOL     -0.268858
     90 C31         5.1090    0.1290    3.0950 c3        1 MOL     -0.076794
     91 H36         3.0400   -4.3180    3.1740 hn        1 MOL      0.201003
     92 H37         2.9880   -1.7050    2.0690 h1        1 MOL      0.128137
     93 H38         4.9930   -3.1690    3.8440 hc        1 MOL     -0.014009
     94 H39         6.1920   -1.5500    2.3790 hc        1 MOL      0.016273
     95 H40         6.2190   -1.3530    4.1600 hc        1 MOL      0.016273
     96 H41         4.3040   -1.6890    5.5910 hc        1 MOL      0.062903
     97 H42         3.0660   -0.9530    4.6250 hc        1 MOL      0.062903
     98 H43         2.9130   -2.6480    5.0890 hc        1 MOL      0.062903
     99 H44         4.5070    0.0830    2.1890 hc        1 MOL      0.024850
    100 H45         4.6020    0.4750    3.9900 hc        1 MOL      0.024850
    101 H46         5.8830    0.8740    2.8990 hc        1 MOL      0.024850
    102 N10         4.0940   -2.1040   -0.0670 n         1 MOL     -0.010285
    103 C32         4.7770   -2.1690   -1.3780 c3        1 MOL     -0.084305
    104 C33         5.9640   -1.1960   -1.6330 c         1 MOL      0.534303
    105 O16         6.7150   -1.3240   -2.5850 o         1 MOL     -0.546802
    106 C34         3.6850   -1.9310   -2.4840 c3        1 MOL     -0.299841
    107 C35         2.4390   -2.7790   -2.2940 c         1 MOL      0.828724
    108 O17         2.5000   -4.0290   -2.3070 o         1 MOL     -0.716411
    109 O18         1.3210   -2.2330   -2.4170 o         1 MOL     -0.716411
    110 H47         3.2190   -1.6040   -0.0160 hn        1 MOL      0.049986
    111 H48         5.1120   -3.2060   -1.4680 h1        1 MOL      0.103010
    112 H49         4.1160   -2.2010   -3.4550 hc        1 MOL      0.099712
    113 H50         3.5090   -0.8570   -2.5120 hc        1 MOL      0.099712
    114 N11         6.1660   -0.1790   -0.7720 n         1 MOL     -0.435210
    115 C36         6.9590    1.0190   -1.0810 c3        1 MOL      0.358939
    116 C37         6.2850    2.2630   -0.4620 c         1 MOL      0.209951
    117 O19         5.7320    2.1240    0.6290 o         1 MOL     -0.400349
    118 C38         8.3970    0.7710   -0.5530 c3        1 MOL     -0.318952
    119 C39         9.4510    1.8260   -0.7680 ca        1 MOL      0.166904
    120 C40         9.4760    2.8730    0.1590 ca        1 MOL     -0.171233
    121 C41        10.4200    1.7150   -1.7690 ca        1 MOL     -0.171233
    122 C42        10.4860    3.8120    0.1270 ca        1 MOL     -0.122245
    123 C43        11.4410    2.6750   -1.8570 ca        1 MOL     -0.122245
    124 C44        11.4330    3.7320   -0.8880 ca        1 MOL     -0.123021
    125 H51         5.6000   -0.1630    0.0670 hn        1 MOL      0.268734
    126 H52         7.0310    1.2010   -2.1480 h1        1 MOL      0.001394
    127 H53         8.6870   -0.1710   -1.0190 hc        1 MOL      0.102208
    128 H54         8.3120    0.6370    0.5230 hc        1 MOL      0.102208
    129 H55         8.7730    3.0190    0.9700 ha        1 MOL      0.130222
    130 H56        10.3510    0.8880   -2.4660 ha        1 MOL      0.130222
    131 H57        10.5470    4.5100    0.9520 ha        1 MOL      0.117133
    132 H58        12.1560    2.6620   -2.6610 ha        1 MOL      0.117133
    133 H59        12.2380    4.4550   -0.8900 ha        1 MOL      0.094854
    134 N12         6.3690    3.4500   -1.0970 n         1 MOL     -0.102257
    135 C45         6.1520    4.7470   -0.4450 c3        1 MOL     -0.028558
    136 C46         4.6870    5.1760   -0.1560 c         1 MOL      0.535350
    137 O20         4.3300    6.3260   -0.0100 o         1 MOL     -0.546490
    138 C47         7.0080    5.7340   -1.2370 c3        1 MOL     -0.065006
    139 C48         7.1240    5.1250   -2.6610 c3        1 MOL     -0.113526
    140 C49         7.0130    3.6580   -2.3920 c3        1 MOL      0.293487
    141 H60         6.6560    4.6550    0.5250 h1        1 MOL      0.058462
    142 H61         6.3630    6.6100   -1.2960 hc        1 MOL      0.031299
    143 H62         7.9830    5.9350   -0.8040 hc        1 MOL      0.031299
    144 H63         6.2900    5.4470   -3.2840 hc        1 MOL      0.040194
    145 H64         8.0640    5.3180   -3.1800 hc        1 MOL      0.040194
    146 H65         6.2990    3.2770   -3.1190 h1        1 MOL     -0.036680
    147 H66         7.9030    3.1170   -2.7090 h1        1 MOL     -0.036680
    148 N13         3.8220    4.2100    0.0580 n         1 MOL     -0.170108
    149 C50         2.3730    4.3630    0.3540 c3        1 MOL     -0.453804
    150 C51         1.9940    4.9800    1.7260 c         1 MOL      0.594628
    151 O21         0.9020    5.5030    1.8980 o         1 MOL     -0.521841
    152 C52         1.5890    3.0680    0.0220 c3        1 MOL      0.213958
    153 C53         2.1550    1.9130    0.9140 c3        1 MOL     -0.070290
    154 C54         1.4960    0.6300    0.5420 c         1 MOL      0.711023
    155 O22         0.4840    0.2020    1.1080 o         1 MOL     -0.752736
    156 O23         1.9020    0.0600   -0.4550 o         1 MOL     -0.752736
    157 H67         4.2520    3.2990    0.1900 hn        1 MOL      0.036977
    158 H68         2.0200    5.0620   -0.4020 h1        1 MOL      0.193611
    159 H69         1.6200    2.9240   -1.0610 hc        1 MOL      0.030366
    160 H70         0.5230    3.1740    0.2300 hc        1 MOL      0.030366
    161 H71         2.1280    2.1150    1.9800 hc        1 MOL     -0.002835
    162 H72         3.2130    1.7790    0.6900 hc        1 MOL     -0.002835
    163 N14         2.9830    4.9600    2.6550 n         1 MOL     -0.237539
    164 C55         2.8190    5.6820    3.9440 c3        1 MOL     -0.180575
    165 H73         2.6100    4.9640    4.7370 h1        1 MOL      0.085109
    166 H74         3.7340    6.2240    4.1770 h1        1 MOL      0.085109
    167 H75         1.9890    6.3850    3.8640 h1        1 MOL      0.085109
    168 H76         3.8280    4.4310    2.4720 hn        1 MOL      0.226947
    169 Ca1        -0.3080   -1.3810   -0.6730 Ca        1 MOL      1.656890
    170 O24         0.1540    0.5180   -2.8800 oh        1 MOL     -0.748753
    171 H77         0.5350   -0.0790   -3.5240 ho        1 MOL      0.368410
    172 H78        -0.6690    0.7970   -3.2640 ho        1 MOL      0.368410
    173 O25        -2.3310   -1.7920    1.0970 oh        1 MOL     -0.748753
    174 H79        -2.0730   -1.1720    1.7820 ho        1 MOL      0.368410
    175 H80        -3.2660   -1.6680    0.9960 ho        1 MOL      0.368410
@<TRIPOS>BOND
     1    1    2 1   
     2    1    4 1   
     3    1    5 1   
     4    1    6 1   
     5    2    3 2   
     6    2    7 1   
     7    7    8 1   
     8    7   15 1   
     9    8    9 1   
    10    8   11 1   
    11    8   16 1   
    12    9   10 2   
    13    9   19 1   
    14   11   12 1   
    15   11   17 1   
    16   11   18 1   
    17   12   13 1   
    18   12   14 1   
    19   19   20 1   
    20   19   24 1   
    21   20   21 1   
    22   20   23 1   
    23   20   25 1   
    24   21   22 2   
    25   21   29 1   
    26   23   26 1   
    27   23   27 1   
    28   23   28 1   
    29   29   30 1   
    30   29   37 1   
    31   30   31 1   
    32   30   33 1   
    33   30   38 1   
    34   31   32 2   
    35   31   41 1   
    36   33   34 1   
    37   33   39 1   
    38   33   40 1   
    39   34   35 1   
    40   34   36 1   
    41   41   42 1   
    42   41   45 1   
    43   42   43 1   
    44   42   46 1   
    45   42   47 1   
    46   43   44 2   
    47   43   48 1   
    48   48   49 1   
    49   48   56 1   
    50   49   50 1   
    51   49   52 1   
    52   49   57 1   
    53   50   51 2   
    54   50   62 1   
    55   52   53 1   
    56   52   58 1   
    57   52   59 1   
    58   53   54 1   
    59   53   55 2   
    60   54   60 1   
    61   54   61 1   
    62   62   63 1   
    63   62   66 1   
    64   63   64 1   
    65   63   67 1   
    66   63   68 1   
    67   64   65 2   
    68   64   69 1   
    69   69   70 1   
    70   69   76 1   
    71   70   71 1   
    72   70   73 1   
    73   70   77 1   
    74   71   72 2   
    75   71   83 1   
    76   73   74 1   
    77   73   75 1   
    78   73   78 1   
    79   74   80 1   
    80   74   81 1   
    81   74   82 1   
    82   75   79 1   
    83   83   84 1   
    84   83   91 1   
    85   84   85 1   
    86   84   87 1   
    87   84   92 1   
    88   85   86 2   
    89   85  102 1   
    90   87   88 1   
    91   87   89 1   
    92   87   93 1   
    93   88   90 1   
    94   88   94 1   
    95   88   95 1   
    96   89   96 1   
    97   89   97 1   
    98   89   98 1   
    99   90   99 1   
   100   90  100 1   
   101   90  101 1   
   102  102  103 1   
   103  102  110 1   
   104  103  104 1   
   105  103  106 1   
   106  103  111 1   
   107  104  105 2   
   108  104  114 1   
   109  106  107 1   
   110  106  112 1   
   111  106  113 1   
   112  107  108 1   
   113  107  109 1   
   114  114  115 1   
   115  114  125 1   
   116  115  116 1   
   117  115  118 1   
   118  115  126 1   
   119  116  117 2   
   120  116  134 1   
   121  118  119 1   
   122  118  127 1   
   123  118  128 1   
   124  119  120 ar  
   125  119  121 ar  
   126  120  122 ar  
   127  120  129 1   
   128  121  123 ar  
   129  121  130 1   
   130  122  124 ar  
   131  122  131 1   
   132  123  124 ar  
   133  123  132 1   
   134  124  133 1   
   135  134  135 1   
   136  134  140 1   
   137  135  136 1   
   138  135  138 1   
   139  135  141 1   
   140  136  137 2   
   141  136  148 1   
   142  138  139 1   
   143  138  142 1   
   144  138  143 1   
   145  139  140 1   
   146  139  144 1   
   147  139  145 1   
   148  140  146 1   
   149  140  147 1   
   150  148  149 1   
   151  148  157 1   
   152  149  150 1   
   153  149  152 1   
   154  149  158 1   
   155  150  151 2   
   156  150  163 1   
   157  152  153 1   
   158  152  159 1   
   159  152  160 1   
   160  153  154 1   
   161  153  161 1   
   162  153  162 1   
   163  154  155 1   
   164  154  156 1   
   165  163  164 1   
   166  163  168 1   
   167  164  165 1   
   168  164  166 1   
   169  164  167 1   
   170  170  171 1   
   171  170  172 1   
   172  173  174 1   
   173  173  175 1   
@<TRIPOS>SUBSTRUCTURE
     1 MOL         1 TEMP              0 ****  ****    0 ROOT
