@<TRIPOS>MOLECULE
MOL
  181   177     1     0     0
SMALL
resp


@<TRIPOS>ATOM
      1 C1         -4.5640    7.7590    1.6360 c3        1 MOL     -0.303068
      2 C2         -5.5860    7.0490    0.7260 c         1 MOL      0.656132
      3 O1         -5.6910    7.4210   -0.4720 o         1 MOL     -0.570460
      4 H1         -4.0080    8.4940    1.0540 hc        1 MOL      0.074875
      5 H2         -5.0890    8.2630    2.4490 hc        1 MOL      0.074875
      6 H3         -3.8730    7.0250    2.0490 hc        1 MOL      0.074875
      7 N1         -6.4760    6.2010    1.2990 n         1 MOL     -0.631134
      8 C3         -7.7350    5.5950    0.7580 c3        1 MOL      0.540051
      9 C4         -7.4550    4.3640   -0.1070 c         1 MOL      0.340343
     10 O2         -8.2620    3.3950   -0.0770 o         1 MOL     -0.462161
     11 C5         -8.7640    5.4460    1.8100 c3        1 MOL     -0.341986
     12 C6        -10.1660    5.1470    1.2040 c         1 MOL      0.772234
     13 O3        -10.5340    5.8200    0.2400 o         1 MOL     -0.722820
     14 O4        -10.9670    4.3930    1.7720 o         1 MOL     -0.722820
     15 H4         -6.1770    6.0580    2.2540 hn        1 MOL      0.278246
     16 H5         -8.1890    6.3500    0.1200 h1        1 MOL     -0.031071
     17 H6         -8.7870    6.3860    2.3550 hc        1 MOL      0.029658
     18 H7         -8.5190    4.6170    2.4800 hc        1 MOL      0.029658
     19 N2         -6.3330    4.3810   -0.8650 n         1 MOL     -0.567261
     20 C7         -5.9220    3.4170   -1.9050 c3        1 MOL      0.676554
     21 C8         -4.4120    3.0450   -1.8190 c         1 MOL      0.141560
     22 O5         -3.6110    3.7880   -1.2210 o         1 MOL     -0.483516
     23 C9         -6.2420    4.0160   -3.2110 c3        1 MOL     -0.504482
     24 H8         -5.8540    5.2710   -0.7490 hn        1 MOL      0.229763
     25 H9         -6.4960    2.5140   -1.7090 h1        1 MOL     -0.052287
     26 H10        -6.1070    3.2790   -4.0080 hc        1 MOL      0.117462
     27 H11        -7.2660    4.3980   -3.2700 hc        1 MOL      0.117462
     28 H12        -5.5650    4.8590   -3.3500 hc        1 MOL      0.117462
     29 N3         -3.9560    1.9740   -2.4840 n         1 MOL      0.006980
     30 C10        -4.7910    0.9000   -3.0920 c3        1 MOL     -0.549902
     31 C11        -5.2410   -0.0790   -2.0610 c         1 MOL      0.867953
     32 O6         -5.1170    0.0700   -0.8240 o         1 MOL     -0.521073
     33 C12        -3.7630    0.2500   -4.0760 c3        1 MOL      0.069893
     34 C13        -2.5970   -0.3690   -3.3700 c         1 MOL      0.553469
     35 O7         -2.6470   -1.6370   -3.2490 o         1 MOL     -0.677984
     36 O8         -1.7260    0.3140   -2.7470 o         1 MOL     -0.677984
     37 H13        -2.9540    1.8660   -2.5600 hn        1 MOL      0.158664
     38 H14        -5.5940    1.3320   -3.6970 h1        1 MOL      0.182362
     39 H15        -3.4070    1.0140   -4.7620 hc        1 MOL      0.006740
     40 H16        -4.2550   -0.4160   -4.7820 hc        1 MOL      0.006740
     41 N4         -5.7620   -1.2010   -2.5460 n         1 MOL     -0.544373
     42 C14        -6.3990   -2.2840   -1.7850 c3        1 MOL      0.010002
     43 C15        -7.8900   -2.0900   -1.5430 c         1 MOL      0.507529
     44 O9         -8.4790   -1.2510   -2.1220 o         1 MOL     -0.523923
     45 H17        -5.8060   -1.3150   -3.5460 hn        1 MOL      0.307628
     46 H18        -5.8850   -2.1470   -0.8360 h1        1 MOL      0.087575
     47 H19        -6.2000   -3.2920   -2.1590 h1        1 MOL      0.087575
     48 N5         -8.4760   -2.7800   -0.5700 n         1 MOL     -0.425538
     49 C16        -7.8940   -3.7550    0.3290 c3        1 MOL      0.235980
     50 C17        -6.9670   -3.0690    1.3600 c         1 MOL      0.522318
     51 O10        -7.4170   -2.0040    1.8380 o         1 MOL     -0.493756
     52 C18        -9.0910   -4.5500    0.9840 c3        1 MOL     -0.547847
     53 C19        -8.5830   -5.8560    1.4630 c         1 MOL      0.790139
     54 N6         -9.5050   -6.6280    2.0400 n         1 MOL     -0.856119
     55 O11        -7.4560   -6.2840    1.3490 o         1 MOL     -0.553519
     56 H20        -9.4530   -2.8540   -0.7750 hn        1 MOL      0.273189
     57 H21        -7.2640   -4.3490   -0.3250 h1        1 MOL     -0.034692
     58 H22        -9.7450   -4.9130    0.1860 hc        1 MOL      0.157380
     59 H23        -9.5240   -3.8670    1.7070 hc        1 MOL      0.157380
     60 H24       -10.4250   -6.2280    2.0240 hn        1 MOL      0.374461
     61 H25        -9.2720   -7.5140    2.4510 hn        1 MOL      0.374461
     62 N7         -5.7140   -3.6030    1.3830 n         1 MOL     -0.454160
     63 C20        -4.5420   -2.9500    1.9440 c3        1 MOL     -0.003068
     64 C21        -3.3290   -3.8710    2.1760 c         1 MOL      0.443772
     65 O12        -3.3650   -4.9680    2.7460 o         1 MOL     -0.536613
     66 H26        -5.6120   -4.5200    0.9700 hn        1 MOL      0.297022
     67 H27        -4.8460   -2.4730    2.8830 h1        1 MOL      0.072858
     68 H28        -4.2240   -2.0910    1.3540 h1        1 MOL      0.072858
     69 N8         -2.2190   -3.4730    1.5370 n         1 MOL     -0.214334
     70 C22        -0.8900   -4.1760    1.6010 c3        1 MOL      0.009215
     71 C23         0.2760   -3.2080    1.6430 c         1 MOL      0.308814
     72 O13         0.0680   -2.0620    1.3270 o         1 MOL     -0.505094
     73 C24        -0.6130   -5.0140    0.3170 c3        1 MOL      0.380424
     74 C25        -1.4640   -6.2310    0.1940 c3        1 MOL     -0.489524
     75 O14        -0.8650   -4.1990   -0.8370 oh        1 MOL     -0.577854
     76 H29        -2.2200   -2.6080    1.0130 hn        1 MOL      0.135398
     77 H30        -0.9100   -4.7820    2.5060 h1        1 MOL      0.049501
     78 H31         0.4140   -5.3940    0.3540 h1        1 MOL      0.044660
     79 H32        -0.0230   -3.8340   -1.1130 ho        1 MOL      0.374427
     80 H33        -1.1320   -6.7240   -0.7120 hc        1 MOL      0.115272
     81 H34        -1.2240   -6.8990    1.0220 hc        1 MOL      0.115272
     82 H35        -2.5230   -5.9890    0.1870 hc        1 MOL      0.115272
     83 N9          1.4780   -3.6190    1.9550 n         1 MOL     -0.181893
     84 C26         2.6820   -2.8740    1.9040 c3        1 MOL     -0.029016
     85 C27         3.5600   -3.3600    0.7960 c         1 MOL      0.506313
     86 O15         3.9890   -4.5210    0.8710 o         1 MOL     -0.575344
     87 C28         3.4510   -2.7560    3.2660 c3        1 MOL      0.171794
     88 C29         3.0370   -1.3740    3.9490 c3        1 MOL      0.036396
     89 C30         3.3020   -3.9180    4.1760 c3        1 MOL     -0.167307
     90 C31         3.7930   -1.1020    5.2500 c3        1 MOL     -0.230541
     91 H36         1.6000   -4.5900    2.2010 hn        1 MOL      0.186661
     92 H37         2.4030   -1.8720    1.5800 h1        1 MOL     -0.008611
     93 H38         4.5050   -2.5820    3.0390 hc        1 MOL     -0.011246
     94 H39         1.9710   -1.3680    4.1770 hc        1 MOL      0.011289
     95 H40         3.2200   -0.5050    3.3100 hc        1 MOL      0.011289
     96 H41         3.3460   -4.7900    3.5380 hc        1 MOL      0.033999
     97 H42         4.0730   -4.1480    4.9180 hc        1 MOL      0.033999
     98 H43         2.3180   -3.8370    4.6240 hc        1 MOL      0.033999
     99 H44         3.5030   -1.7520    6.0760 hc        1 MOL      0.046030
    100 H45         4.8640   -1.1940    5.0720 hc        1 MOL      0.046030
    101 H46         3.5040   -0.0880    5.5490 hc        1 MOL      0.046030
    102 N10         3.8760   -2.4990   -0.0810 n         1 MOL     -0.490391
    103 C32         4.4130   -2.9190   -1.3820 c3        1 MOL      0.169480
    104 C33         5.7240   -2.2520   -1.8180 c         1 MOL      0.410872
    105 O16         6.0490   -2.3310   -3.0230 o         1 MOL     -0.546952
    106 C34         3.3440   -2.6390   -2.3990 c3        1 MOL     -0.128469
    107 C35         2.0430   -3.2230   -1.9570 c         1 MOL      0.653657
    108 O17         1.7860   -4.4080   -2.2040 o         1 MOL     -0.650969
    109 O18         1.2190   -2.5260   -1.2810 o         1 MOL     -0.650969
    110 H47         3.5060   -1.5720    0.0070 hn        1 MOL      0.326943
    111 H48         4.6260   -3.9820   -1.3240 h1        1 MOL      0.069592
    112 H49         3.6440   -3.1200   -3.3300 hc        1 MOL      0.037568
    113 H50         3.2270   -1.5640   -2.5690 hc        1 MOL      0.037568
    114 N11         6.3100   -1.5010   -0.9300 n         1 MOL     -0.352865
    115 C36         7.5680   -0.6990   -1.0860 c3        1 MOL      0.415127
    116 C37         7.6820    0.5590   -0.2270 c         1 MOL      0.000326
    117 O19         7.0480    0.5770    0.8200 o         1 MOL     -0.379283
    118 C38         8.6520   -1.7470   -0.7630 c3        1 MOL     -0.347063
    119 C39        10.0710   -1.3150   -0.8700 ca        1 MOL      0.193539
    120 C40        10.6150   -0.6740    0.2540 ca        1 MOL     -0.255242
    121 C41        10.7400   -1.4190   -2.0850 ca        1 MOL     -0.255242
    122 C42        11.9270   -0.1990    0.1410 ca        1 MOL     -0.019466
    123 C43        12.0720   -0.9400   -2.1720 ca        1 MOL     -0.019466
    124 C44        12.6960   -0.3890   -1.0430 ca        1 MOL     -0.219479
    125 H51         5.9430   -1.4650    0.0190 hn        1 MOL      0.216111
    126 H52         7.5680   -0.5140   -2.1590 h1        1 MOL     -0.002162
    127 H53         8.5390   -2.6530   -1.3580 hc        1 MOL      0.117142
    128 H54         8.3890   -2.0860    0.2490 hc        1 MOL      0.117142
    129 H55        10.0630   -0.5790    1.1840 ha        1 MOL      0.153909
    130 H56        10.3450   -1.8820   -2.9780 ha        1 MOL      0.153909
    131 H57        12.3280    0.2560    1.0330 ha        1 MOL      0.085280
    132 H58        12.6210   -1.0640   -3.0930 ha        1 MOL      0.085280
    133 H59        13.6700    0.0880   -1.0660 ha        1 MOL      0.122896
    134 N12         8.2490    1.7000   -0.7280 n         1 MOL      0.019851
    135 C45         8.7090    2.7580    0.1770 c3        1 MOL      0.167202
    136 C46         7.6010    3.7180    0.6220 c         1 MOL      0.411484
    137 O20         7.7970    4.9330    0.5740 o         1 MOL     -0.536422
    138 C47         9.9380    3.3650   -0.5090 c3        1 MOL     -0.182929
    139 C48         9.9220    2.9090   -2.0120 c3        1 MOL      0.327621
    140 C49         8.8270    1.8950   -2.1080 c3        1 MOL     -0.174565
    141 H60         9.0020    2.3190    1.1300 h1        1 MOL      0.021357
    142 H61         9.9500    4.4510   -0.6240 hc        1 MOL      0.033838
    143 H62        10.8690    3.0330   -0.0570 hc        1 MOL      0.033838
    144 H63         9.7310    3.7040   -2.7280 hc        1 MOL     -0.061196
    145 H64        10.8840    2.4800   -2.2840 hc        1 MOL     -0.061196
    146 H65         7.9720    2.2490   -2.6930 h1        1 MOL      0.077621
    147 H66         9.2500    0.9470   -2.4360 h1        1 MOL      0.077621
    148 N13         6.4110    3.2080    0.9510 n         1 MOL     -0.316702
    149 C50         5.1190    3.9380    1.1950 c3        1 MOL     -0.150481
    150 C51         5.2370    4.7150    2.4940 c         1 MOL      0.437719
    151 O21         4.2730    5.4330    2.7500 o         1 MOL     -0.525913
    152 C52         4.0000    2.9550    1.1490 c3        1 MOL      0.020138
    153 C53         3.9730    2.0590   -0.1650 c3        1 MOL      0.131443
    154 C54         2.6500    1.3010   -0.5130 c         1 MOL      0.596910
    155 O22         1.7130    1.9330   -1.1050 o         1 MOL     -0.726678
    156 O23         2.4830    0.1040   -0.0910 o         1 MOL     -0.726678
    157 H67         6.4100    2.2190    1.0930 hn        1 MOL      0.191973
    158 H68         4.9090    4.6170    0.3760 h1        1 MOL      0.167138
    159 H69         3.0250    3.4130    1.2780 hc        1 MOL      0.038225
    160 H70         4.1120    2.3130    2.0260 hc        1 MOL      0.038225
    161 H71         4.6750    1.2480    0.0190 hc        1 MOL     -0.042255
    162 H72         4.3270    2.6200   -1.0200 hc        1 MOL     -0.042255
    163 N14         6.2360    4.4320    3.3200 n         1 MOL     -0.197862
    164 C55         6.3300    5.0900    4.6250 c3        1 MOL     -0.128769
    165 H73         6.2050    4.3490    5.4140 h1        1 MOL      0.075150
    166 H74         7.3070    5.5630    4.7240 h1        1 MOL      0.075150
    167 H75         5.5490    5.8450    4.7100 h1        1 MOL      0.075150
    168 H76         6.8410    3.7030    2.9880 hn        1 MOL      0.205381
    169 Ca1        -0.0450   -0.2450   -0.8410 Ca        1 MOL      1.745654
    170 O24        -1.1760    2.2180   -0.6140 oh        1 MOL     -0.801642
    171 O25         0.7160   -0.7830   -3.5240 oh        1 MOL     -0.801642
    172 H77        -2.0400    2.6230   -0.5940 ho        1 MOL      0.392452
    173 H78         1.4180   -0.5120   -4.1100 ho        1 MOL      0.392452
    174 H79        -0.5570    2.9510   -0.5500 ho        1 MOL      0.392452
    175 H80        -0.0800   -0.6880   -4.0440 ho        1 MOL      0.392452
    176 O26        -0.1250    0.6710    1.7400 oh        1 MOL     -0.801642
    177 H81        -0.4680    1.4390    2.1810 ho        1 MOL      0.392452
    178 H82         0.1760    0.1020    2.4380 ho        1 MOL      0.392452
    179 O27        -2.6360   -1.2980   -0.4820 oh        1 MOL     -0.801642
    180 H83        -2.5540   -2.0270   -1.0940 ho        1 MOL      0.392452
    181 H84        -3.5100   -0.9370   -0.6500 ho        1 MOL      0.392452
@<TRIPOS>BOND
     1    1    2 1   
     2    1    4 1   
     3    1    5 1   
     4    1    6 1   
     5    2    3 2   
     6    2    7 1   
     7    7    8 1   
     8    7   15 1   
     9    8    9 1   
    10    8   11 1   
    11    8   16 1   
    12    9   10 2   
    13    9   19 1   
    14   11   12 1   
    15   11   17 1   
    16   11   18 1   
    17   12   13 1   
    18   12   14 1   
    19   19   20 1   
    20   19   24 1   
    21   20   21 1   
    22   20   23 1   
    23   20   25 1   
    24   21   22 2   
    25   21   29 1   
    26   23   26 1   
    27   23   27 1   
    28   23   28 1   
    29   29   30 1   
    30   29   37 1   
    31   30   31 1   
    32   30   33 1   
    33   30   38 1   
    34   31   32 2   
    35   31   41 1   
    36   33   34 1   
    37   33   39 1   
    38   33   40 1   
    39   34   35 1   
    40   34   36 1   
    41   41   42 1   
    42   41   45 1   
    43   42   43 1   
    44   42   46 1   
    45   42   47 1   
    46   43   44 2   
    47   43   48 1   
    48   48   49 1   
    49   48   56 1   
    50   49   50 1   
    51   49   52 1   
    52   49   57 1   
    53   50   51 2   
    54   50   62 1   
    55   52   53 1   
    56   52   58 1   
    57   52   59 1   
    58   53   54 1   
    59   53   55 2   
    60   54   60 1   
    61   54   61 1   
    62   62   63 1   
    63   62   66 1   
    64   63   64 1   
    65   63   67 1   
    66   63   68 1   
    67   64   65 2   
    68   64   69 1   
    69   69   70 1   
    70   69   76 1   
    71   70   71 1   
    72   70   73 1   
    73   70   77 1   
    74   71   72 2   
    75   71   83 1   
    76   73   74 1   
    77   73   75 1   
    78   73   78 1   
    79   74   80 1   
    80   74   81 1   
    81   74   82 1   
    82   75   79 1   
    83   83   84 1   
    84   83   91 1   
    85   84   85 1   
    86   84   87 1   
    87   84   92 1   
    88   85   86 2   
    89   85  102 1   
    90   87   88 1   
    91   87   89 1   
    92   87   93 1   
    93   88   90 1   
    94   88   94 1   
    95   88   95 1   
    96   89   96 1   
    97   89   97 1   
    98   89   98 1   
    99   90   99 1   
   100   90  100 1   
   101   90  101 1   
   102  102  103 1   
   103  102  110 1   
   104  103  104 1   
   105  103  106 1   
   106  103  111 1   
   107  104  105 2   
   108  104  114 1   
   109  106  107 1   
   110  106  112 1   
   111  106  113 1   
   112  107  108 1   
   113  107  109 1   
   114  114  115 1   
   115  114  125 1   
   116  115  116 1   
   117  115  118 1   
   118  115  126 1   
   119  116  117 2   
   120  116  134 1   
   121  118  119 1   
   122  118  127 1   
   123  118  128 1   
   124  119  120 ar  
   125  119  121 ar  
   126  120  122 ar  
   127  120  129 1   
   128  121  123 ar  
   129  121  130 1   
   130  122  124 ar  
   131  122  131 1   
   132  123  124 ar  
   133  123  132 1   
   134  124  133 1   
   135  134  135 1   
   136  134  140 1   
   137  135  136 1   
   138  135  138 1   
   139  135  141 1   
   140  136  137 2   
   141  136  148 1   
   142  138  139 1   
   143  138  142 1   
   144  138  143 1   
   145  139  140 1   
   146  139  144 1   
   147  139  145 1   
   148  140  146 1   
   149  140  147 1   
   150  148  149 1   
   151  148  157 1   
   152  149  150 1   
   153  149  152 1   
   154  149  158 1   
   155  150  151 2   
   156  150  163 1   
   157  152  153 1   
   158  152  159 1   
   159  152  160 1   
   160  153  154 1   
   161  153  161 1   
   162  153  162 1   
   163  154  155 1   
   164  154  156 1   
   165  163  164 1   
   166  163  168 1   
   167  164  165 1   
   168  164  166 1   
   169  164  167 1   
   170  170  172 1   
   171  170  174 1   
   172  171  173 1   
   173  171  175 1   
   174  176  177 1   
   175  176  178 1   
   176  179  180 1   
   177  179  181 1   
@<TRIPOS>SUBSTRUCTURE
     1 MOL         1 TEMP              0 ****  ****    0 ROOT
