@<TRIPOS>MOLECULE
MOL
  189   185     1     0     0
SMALL
resp


@<TRIPOS>ATOM
      1 C1          4.0060    4.3060   -3.4420 c3        1 MOL     -0.425829
      2 C2          4.8530    3.4880   -2.4950 c         1 MOL      0.734984
      3 O1          4.5020    3.1590   -1.3290 o         1 MOL     -0.572569
      4 H1          3.9650    3.8110   -4.4120 hc        1 MOL      0.111958
      5 H2          2.9970    4.4000   -3.0390 hc        1 MOL      0.111958
      6 H3          4.4440    5.2970   -3.5580 hc        1 MOL      0.111958
      7 N1          6.0130    3.0070   -2.9510 n         1 MOL     -0.601334
      8 C3          6.8970    2.0180   -2.4310 c3        1 MOL      0.441329
      9 C4          6.1170    0.7100   -1.9430 c         1 MOL      0.137108
     10 O2          5.9030    0.4500   -0.7680 o         1 MOL     -0.350899
     11 C5          7.9460    2.5740   -1.4380 c3        1 MOL     -0.408975
     12 C6          7.4000    3.4630   -0.3280 c         1 MOL      0.768805
     13 O3          6.6940    2.9830    0.5740 o         1 MOL     -0.710027
     14 O4          7.5670    4.7280   -0.4200 o         1 MOL     -0.710027
     15 H4          6.1260    3.1530   -3.9430 hn        1 MOL      0.273171
     16 H5          7.5270    1.6500   -3.2320 h1        1 MOL     -0.017391
     17 H6          8.4900    3.2810   -2.0690 hc        1 MOL      0.060600
     18 H7          8.6730    1.8860   -1.0030 hc        1 MOL      0.060600
     19 N2          5.5280    0.0510   -2.9280 n         1 MOL     -0.183913
     20 C7          4.8310   -1.2000   -2.9000 c3        1 MOL     -0.032325
     21 C8          5.5900   -2.4140   -2.2820 c         1 MOL      0.378636
     22 O5          6.1700   -3.1690   -3.0070 o         1 MOL     -0.543091
     23 C9          3.3010   -1.0060   -2.5530 c3        1 MOL      0.436666
     24 C10         2.3850   -2.1990   -2.8950 c3        1 MOL      0.025111
     25 C11         2.6350    0.2390   -3.1310 c3        1 MOL     -0.234837
     26 C12         2.3200   -2.6020   -4.3750 c3        1 MOL     -0.340441
     27 H8          5.6660    0.4530   -3.8390 hn        1 MOL      0.181024
     28 H9          4.7530   -1.5080   -3.9420 h1        1 MOL      0.026193
     29 H10         3.3070   -0.8630   -1.4730 hc        1 MOL     -0.199510
     30 H11         1.4010   -1.9320   -2.5030 hc        1 MOL      0.029892
     31 H12         2.6950   -3.0530   -2.2980 hc        1 MOL      0.029892
     32 H13         1.5760    0.3690   -2.9070 hc        1 MOL      0.012087
     33 H14         3.1910    1.1240   -2.8220 hc        1 MOL      0.012087
     34 H15         2.6920    0.1280   -4.2170 hc        1 MOL      0.012087
     35 H16         3.3000   -2.6030   -4.8500 hc        1 MOL      0.070171
     36 H17         1.6310   -3.4220   -4.5950 hc        1 MOL      0.070171
     37 H18         1.8710   -1.7120   -4.8360 hc        1 MOL      0.070171
     38 N3          5.6640   -2.5020   -0.9380 n         1 MOL     -0.070716
     39 C13         6.4910   -3.5810   -0.2490 c3        1 MOL      0.048443
     40 C14         5.8180   -4.8950    0.2410 c         1 MOL      0.403035
     41 O6          6.3780   -5.9810    0.1710 o         1 MOL     -0.503824
     42 C15         7.3960   -2.8730    0.8440 c3        1 MOL     -0.340070
     43 C16         8.2910   -3.9300    1.5780 c         1 MOL      0.748947
     44 O7          9.3400   -4.4410    1.1290 o         1 MOL     -0.724155
     45 O8          7.9060   -4.2680    2.7060 o         1 MOL     -0.724155
     46 H19         5.2810   -1.7730   -0.3400 hn        1 MOL      0.179520
     47 H20         7.2880   -3.9500   -0.8880 h1        1 MOL      0.065160
     48 H21         6.6580   -2.4380    1.5120 hc        1 MOL      0.068558
     49 H22         7.8690   -1.9680    0.4740 hc        1 MOL      0.068558
     50 N4          4.6160   -4.9140    0.7880 n         1 MOL     -0.361093
     51 C17         3.7530   -3.8060    1.1080 c3        1 MOL     -0.051462
     52 C18         2.6780   -4.2380    2.1350 c         1 MOL      0.789420
     53 O9          2.4210   -5.4010    2.2850 o         1 MOL     -0.585382
     54 H23         4.2960   -5.8250    1.0730 hn        1 MOL      0.264675
     55 H24         3.1960   -3.3650    0.2830 h1        1 MOL      0.035199
     56 H25         4.3810   -3.0230    1.5380 h1        1 MOL      0.035199
     57 N5          1.9780   -3.2420    2.7120 n         1 MOL     -0.736052
     58 C19         2.2190   -1.8050    2.8010 c3        1 MOL      0.453646
     59 C20         2.4040   -1.0940    1.4600 c         1 MOL      0.013116
     60 O10         3.5090   -0.7180    1.0380 o         1 MOL     -0.528965
     61 C21         3.2680   -1.3130    3.8150 c3        1 MOL     -0.425293
     62 C22         3.0290    0.2140    4.1690 c         1 MOL      0.756752
     63 O11         2.5400    0.5540    5.2400 o         1 MOL     -0.685181
     64 O12         3.3030    1.1290    3.3650 o         1 MOL     -0.685181
     65 H26         1.4750   -3.6020    3.5150 hn        1 MOL      0.318170
     66 H27         1.2610   -1.4120    3.1310 h1        1 MOL      0.069938
     67 H28         4.2790   -1.2620    3.4050 hc        1 MOL      0.104670
     68 H29         3.1120   -1.9780    4.6740 hc        1 MOL      0.104670
     69 N6          1.3570   -0.8470    0.6100 n         1 MOL     -0.079248
     70 C23        -0.0570   -1.3250    0.6750 c3        1 MOL     -0.291181
     71 C24        -0.4810   -2.6490    0.0630 c         1 MOL      0.456898
     72 O13         0.2360   -3.2580   -0.6910 o         1 MOL     -0.436664
     73 H30         1.4970   -0.2850   -0.2150 hn        1 MOL      0.344360
     74 H31        -0.7380   -0.5140    0.3890 h1        1 MOL      0.116863
     75 H32        -0.2690   -1.3050    1.7390 h1        1 MOL      0.116863
     76 N7         -1.6240   -3.2200    0.3850 n         1 MOL     -0.357762
     77 C25        -2.1280   -4.3820   -0.2710 c3        1 MOL      0.077826
     78 C26        -2.6980   -4.0990   -1.6800 c         1 MOL      0.221685
     79 O14        -2.6450   -5.0700   -2.5140 o         1 MOL     -0.498482
     80 C27        -3.1420   -5.0120    0.6610 c3        1 MOL      0.020012
     81 C28        -4.3800   -4.1430    0.9430 c3        1 MOL     -0.267207
     82 C29        -5.3390   -4.7890    1.9100 c         1 MOL      0.738678
     83 N8         -6.5950   -4.8220    1.6070 n         1 MOL     -0.882662
     84 O15        -5.0360   -5.1540    3.0340 o         1 MOL     -0.588900
     85 H33        -2.2600   -2.7850    1.0370 hn        1 MOL      0.245166
     86 H34        -1.2820   -5.0640   -0.3980 h1        1 MOL      0.120034
     87 H35        -2.6320   -5.3890    1.5530 hc        1 MOL      0.032933
     88 H36        -3.5320   -5.9250    0.2120 hc        1 MOL      0.032933
     89 H37        -4.9380   -4.0150    0.0220 hc        1 MOL      0.070701
     90 H38        -4.1990   -3.1450    1.3670 hc        1 MOL      0.070701
     91 H39        -6.9900   -4.6080    0.7050 hn        1 MOL      0.365078
     92 H40        -7.1460   -5.5110    2.0930 hn        1 MOL      0.365078
     93 N9         -3.1500   -2.8910   -1.9230 n         1 MOL     -0.034231
     94 C30        -3.6890   -2.3820   -3.1760 c3        1 MOL     -0.153092
     95 C31        -5.2480   -2.0420   -3.1530 c         1 MOL      0.571464
     96 O16        -5.9630   -2.2470   -4.0590 o         1 MOL     -0.519348
     97 C32        -2.8480   -1.2170   -3.7390 c3        1 MOL      0.145759
     98 C33        -1.4970   -1.8700   -4.2160 c3        1 MOL     -0.339409
     99 C34        -2.5900    0.0010   -2.8250 c3        1 MOL     -0.339409
    100 H41        -3.1050   -2.2980   -1.1010 hn        1 MOL      0.158116
    101 H42        -3.6340   -3.1390   -3.9600 h1        1 MOL      0.105357
    102 H43        -3.3520   -0.9450   -4.6570 hc        1 MOL     -0.001361
    103 H44        -1.7660   -2.5550   -5.0220 hc        1 MOL      0.098394
    104 H45        -0.8590   -1.0650   -4.5880 hc        1 MOL      0.098394
    105 H46        -1.0410   -2.4680   -3.4290 hc        1 MOL      0.098394
    106 H47        -1.9010   -0.4010   -2.0760 hc        1 MOL      0.098394
    107 H48        -2.1830    0.8170   -3.4040 hc        1 MOL      0.098394
    108 H49        -3.5250    0.1620   -2.2760 hc        1 MOL      0.098394
    109 N10        -5.7510   -1.4780   -2.0240 n         1 MOL     -0.329322
    110 C35        -7.1500   -1.0340   -1.9310 c3        1 MOL      0.020465
    111 C36        -7.3680    0.4560   -1.3770 c         1 MOL      0.496455
    112 O17        -8.4350    1.0670   -1.5540 o         1 MOL     -0.530644
    113 C37        -7.9560   -1.9560   -1.0010 c3        1 MOL     -0.417781
    114 C38        -8.1250   -3.3000   -1.6430 c         1 MOL      0.657630
    115 N11        -8.3970   -3.3810   -2.9600 n         1 MOL     -0.812437
    116 O18        -7.7530   -4.2990   -0.9810 o         1 MOL     -0.529257
    117 H50        -5.1370   -1.3440   -1.2350 hn        1 MOL      0.233439
    118 H51        -7.6010   -0.9240   -2.9190 h1        1 MOL      0.079766
    119 H52        -8.8780   -1.4650   -0.6800 hc        1 MOL      0.132504
    120 H53        -7.3830   -2.0580   -0.0750 hc        1 MOL      0.132504
    121 H54        -8.6770   -2.5340   -3.4260 hn        1 MOL      0.396471
    122 H55        -8.3560   -4.2170   -3.5170 hn        1 MOL      0.396471
    123 N12        -6.3770    0.9880   -0.6500 n         1 MOL     -0.414141
    124 C39        -6.3290    2.3480   -0.0790 c3        1 MOL      0.149006
    125 C40        -4.9830    2.9620    0.1150 c         1 MOL      0.375415
    126 O19        -3.9900    2.3420   -0.1920 o         1 MOL     -0.447326
    127 C41        -7.1830    2.2720    1.1850 c3        1 MOL     -0.471880
    128 C42        -6.8900    1.0960    2.0460 ca        1 MOL     -0.057592
    129 C43        -7.6590   -0.0250    2.1150 ca        1 MOL      0.026704
    130 C44        -5.6460    1.1200    2.8280 ca        1 MOL      0.026704
    131 C45        -7.3810   -1.1180    2.9000 ca        1 MOL     -0.385880
    132 C46        -5.2440    0.0110    3.6080 ca        1 MOL     -0.385880
    133 C47        -6.1190   -1.1380    3.6080 ca        1 MOL      0.376683
    134 O20        -5.7450   -2.2570    4.3370 oh        1 MOL     -0.442609
    135 H56        -5.5900    0.3860   -0.4290 hn        1 MOL      0.312996
    136 H57        -6.8160    3.0610   -0.7430 h1        1 MOL      0.075122
    137 H58        -8.2570    2.2610    0.9940 hc        1 MOL      0.175016
    138 H59        -7.0340    3.0960    1.8830 hc        1 MOL      0.175016
    139 H60        -8.5990   -0.0650    1.5750 ha        1 MOL      0.057302
    140 H61        -4.9510    1.9450    2.8080 ha        1 MOL      0.057302
    141 H62        -7.9870   -2.0120    2.8730 ha        1 MOL      0.204416
    142 H63        -4.3250   -0.0360    4.1780 ha        1 MOL      0.204416
    143 H64        -6.3660   -2.9810    4.4050 ho        1 MOL      0.334656
    144 N13        -4.9030    4.1990    0.6030 n         1 MOL     -0.394568
    145 C48        -3.7260    4.9240    1.2170 c3        1 MOL     -0.097025
    146 C49        -2.5920    5.2290    0.2300 c         1 MOL      0.312196
    147 O21        -2.0550    6.3240    0.2990 o         1 MOL     -0.522985
    148 C50        -3.2290    4.1900    2.4800 c3        1 MOL      0.177987
    149 C51        -2.6900    5.1900    3.5180 c3        1 MOL     -0.528756
    150 C52        -2.5280    4.5170    4.8570 c         1 MOL      0.682556
    151 O22        -2.3610    3.2600    4.9510 o         1 MOL     -0.698451
    152 O23        -2.4180    5.2470    5.8820 o         1 MOL     -0.698451
    153 H65        -5.7890    4.6480    0.7810 hn        1 MOL      0.247278
    154 H66        -3.9720    5.9460    1.4990 h1        1 MOL      0.123251
    155 H67        -2.5090    3.3960    2.2830 hc        1 MOL      0.082764
    156 H68        -4.1130    3.6870    2.8670 hc        1 MOL      0.082764
    157 H69        -3.4250    5.9900    3.5370 hc        1 MOL      0.138394
    158 H70        -1.6990    5.5300    3.2120 hc        1 MOL      0.138394
    159 N14        -2.1390    4.3110   -0.6690 n         1 MOL     -0.141748
    160 C53        -1.0480    4.4980   -1.6410 c3        1 MOL     -0.249943
    161 C54        -1.4780    5.2840   -2.8940 c         1 MOL      0.517354
    162 O24        -0.6400    5.7680   -3.6120 o         1 MOL     -0.542071
    163 C55        -0.3180    3.1860   -2.0180 c3        1 MOL      0.072105
    164 C56        -0.0050    2.2150   -0.9180 c3        1 MOL      0.846626
    165 C57         1.1560    2.6240   -0.0160 c         1 MOL      0.379138
    166 O25         0.8260    3.5270    0.8790 o         1 MOL     -0.621494
    167 O26         2.1960    1.9330   -0.0230 o         1 MOL     -0.621494
    168 H71        -2.6760    3.4660   -0.5450 hn        1 MOL      0.174844
    169 H72        -0.2980    5.1580   -1.1990 h1        1 MOL      0.183396
    170 H73         0.6500    3.3790   -2.4780 hc        1 MOL     -0.063280
    171 H74        -0.9840    2.7550   -2.7640 hc        1 MOL     -0.063280
    172 H75         0.3060    1.2640   -1.3560 hc        1 MOL     -0.286950
    173 H76        -0.9370    2.0680   -0.3760 hc        1 MOL     -0.286950
    174 N15        -2.7920    5.5590   -3.0660 n         1 MOL     -0.161475
    175 C58        -3.3710    6.3360   -4.0980 c3        1 MOL     -0.231553
    176 H77        -3.5050    5.7180   -4.9860 h1        1 MOL      0.084951
    177 H78        -4.3400    6.7130   -3.7690 h1        1 MOL      0.084951
    178 H79        -2.7160    7.1730   -4.3340 h1        1 MOL      0.084951
    179 H80        -3.4290    5.0750   -2.4440 hn        1 MOL      0.177682
    180 Ca1         4.4110    1.8930    1.2460 Ca        1 MOL      1.733489
    181 O27         6.5020    0.5460    2.1770 oh        1 MOL     -0.808732
    182 H81         6.7810   -0.1170    2.8040 ho        1 MOL      0.386724
    183 H82         6.8240    0.2300    1.3320 ho        1 MOL      0.386724
    184 O28         5.5370    3.6840    3.4660 oh        1 MOL     -0.808732
    185 H83         4.9690    3.3910    4.1790 ho        1 MOL      0.386724
    186 H84         6.0990    4.3480    3.8610 ho        1 MOL      0.386724
    187 O29         3.3560    4.3300    1.5470 oh        1 MOL     -0.808732
    188 H85         3.7630    5.1970    1.5400 ho        1 MOL      0.386724
    189 H86         2.4130    4.5000    1.4920 ho        1 MOL      0.386724
@<TRIPOS>BOND
     1    1    2 1   
     2    1    4 1   
     3    1    5 1   
     4    1    6 1   
     5    2    3 2   
     6    2    7 1   
     7    7    8 1   
     8    7   15 1   
     9    8    9 1   
    10    8   11 1   
    11    8   16 1   
    12    9   10 2   
    13    9   19 1   
    14   11   12 1   
    15   11   17 1   
    16   11   18 1   
    17   12   13 1   
    18   12   14 1   
    19   19   20 1   
    20   19   27 1   
    21   20   21 1   
    22   20   23 1   
    23   20   28 1   
    24   21   22 2   
    25   21   38 1   
    26   23   24 1   
    27   23   25 1   
    28   23   29 1   
    29   24   26 1   
    30   24   30 1   
    31   24   31 1   
    32   25   32 1   
    33   25   33 1   
    34   25   34 1   
    35   26   35 1   
    36   26   36 1   
    37   26   37 1   
    38   38   39 1   
    39   38   46 1   
    40   39   40 1   
    41   39   42 1   
    42   39   47 1   
    43   40   41 2   
    44   40   50 1   
    45   42   43 1   
    46   42   48 1   
    47   42   49 1   
    48   43   44 1   
    49   43   45 1   
    50   50   51 1   
    51   50   54 1   
    52   51   52 1   
    53   51   55 1   
    54   51   56 1   
    55   52   53 2   
    56   52   57 1   
    57   57   58 1   
    58   57   65 1   
    59   58   59 1   
    60   58   61 1   
    61   58   66 1   
    62   59   60 2   
    63   59   69 1   
    64   61   62 1   
    65   61   67 1   
    66   61   68 1   
    67   62   63 1   
    68   62   64 1   
    69   69   70 1   
    70   69   73 1   
    71   70   71 1   
    72   70   74 1   
    73   70   75 1   
    74   71   72 2   
    75   71   76 1   
    76   76   77 1   
    77   76   85 1   
    78   77   78 1   
    79   77   80 1   
    80   77   86 1   
    81   78   79 2   
    82   78   93 1   
    83   80   81 1   
    84   80   87 1   
    85   80   88 1   
    86   81   82 1   
    87   81   89 1   
    88   81   90 1   
    89   82   83 1   
    90   82   84 2   
    91   83   91 1   
    92   83   92 1   
    93   93   94 1   
    94   93  100 1   
    95   94   95 1   
    96   94   97 1   
    97   94  101 1   
    98   95   96 2   
    99   95  109 1   
   100   97   98 1   
   101   97   99 1   
   102   97  102 1   
   103   98  103 1   
   104   98  104 1   
   105   98  105 1   
   106   99  106 1   
   107   99  107 1   
   108   99  108 1   
   109  109  110 1   
   110  109  117 1   
   111  110  111 1   
   112  110  113 1   
   113  110  118 1   
   114  111  112 2   
   115  111  123 1   
   116  113  114 1   
   117  113  119 1   
   118  113  120 1   
   119  114  115 1   
   120  114  116 2   
   121  115  121 1   
   122  115  122 1   
   123  123  124 1   
   124  123  135 1   
   125  124  125 1   
   126  124  127 1   
   127  124  136 1   
   128  125  126 2   
   129  125  144 1   
   130  127  128 1   
   131  127  137 1   
   132  127  138 1   
   133  128  129 ar  
   134  128  130 ar  
   135  129  131 ar  
   136  129  139 1   
   137  130  132 ar  
   138  130  140 1   
   139  131  133 ar  
   140  131  141 1   
   141  132  133 ar  
   142  132  142 1   
   143  133  134 1   
   144  134  143 1   
   145  144  145 1   
   146  144  153 1   
   147  145  146 1   
   148  145  148 1   
   149  145  154 1   
   150  146  147 2   
   151  146  159 1   
   152  148  149 1   
   153  148  155 1   
   154  148  156 1   
   155  149  150 1   
   156  149  157 1   
   157  149  158 1   
   158  150  151 1   
   159  150  152 1   
   160  159  160 1   
   161  159  168 1   
   162  160  161 1   
   163  160  163 1   
   164  160  169 1   
   165  161  162 2   
   166  161  174 1   
   167  163  164 1   
   168  163  170 1   
   169  163  171 1   
   170  164  165 1   
   171  164  172 1   
   172  164  173 1   
   173  165  166 1   
   174  165  167 1   
   175  174  175 1   
   176  174  179 1   
   177  175  176 1   
   178  175  177 1   
   179  175  178 1   
   180  181  182 1   
   181  181  183 1   
   182  184  185 1   
   183  184  186 1   
   184  187  188 1   
   185  187  189 1   
@<TRIPOS>SUBSTRUCTURE
     1 MOL         1 TEMP              0 ****  ****    0 ROOT
