@<TRIPOS>MOLECULE
MOL
  188   182     1     0     0
SMALL
resp


@<TRIPOS>ATOM
      1 C1         -6.0560    3.2940    0.4210 c3        1 MOL     -0.333038
      2 C2         -7.0750    2.1480    0.6430 c         1 MOL      0.522851
      3 O1         -6.6680    1.0400    1.0240 o         1 MOL     -0.447561
      4 H1         -6.4220    3.9570   -0.3640 hc        1 MOL      0.099199
      5 H2         -5.9360    3.8570    1.3460 hc        1 MOL      0.099199
      6 H3         -5.0960    2.8740    0.1220 hc        1 MOL      0.099199
      7 N1         -8.4020    2.4290    0.4220 n         1 MOL     -0.575957
      8 C3         -9.4650    1.5080    0.7960 c3        1 MOL      0.445144
      9 C4         -9.5230    0.1180    0.1500 c         1 MOL      0.197346
     10 O2         -9.9930   -0.8770    0.7150 o         1 MOL     -0.446973
     11 C5         -9.5080    1.5200    2.3780 c3        1 MOL     -0.299099
     12 C6        -10.8800    1.2910    2.9330 c         1 MOL      0.685208
     13 O3        -11.0750    1.2050    4.1990 o         1 MOL     -0.661529
     14 O4        -11.8800    1.3650    2.2360 o         1 MOL     -0.661529
     15 H4         -8.6250    3.2960   -0.0330 hn        1 MOL      0.321029
     16 H5        -10.3770    2.0310    0.4950 h1        1 MOL     -0.033380
     17 H6         -9.2090    2.5100    2.7450 hc        1 MOL      0.090847
     18 H7         -8.8390    0.8010    2.8560 hc        1 MOL      0.090847
     19 N2         -8.9720    0.0680   -1.0850 n         1 MOL     -0.189598
     20 C7         -8.7310   -1.1700   -1.8640 c3        1 MOL      0.266077
     21 C8         -7.2340   -1.4950   -1.9990 c         1 MOL      0.411427
     22 O5         -6.8510   -2.2810   -2.8830 o         1 MOL     -0.567292
     23 C9         -9.4290   -1.1520   -3.2160 c3        1 MOL     -0.002459
     24 C10       -10.9830   -0.9020   -3.1110 c3        1 MOL     -0.140916
     25 C11       -11.7540   -2.0570   -2.4590 c3        1 MOL      0.166624
     26 C12       -13.2390   -1.6870   -2.5520 c3        1 MOL     -0.002802
     27 N3        -14.0300   -2.8290   -1.9990 n4        1 MOL     -0.254849
     28 H8         -8.7870    0.9530   -1.5360 hn        1 MOL      0.147053
     29 H9         -9.1630   -2.0080   -1.3240 h1        1 MOL      0.029309
     30 H10        -9.2020   -2.1040   -3.6980 hc        1 MOL      0.002052
     31 H11        -8.9290   -0.4000   -3.8110 hc        1 MOL      0.002052
     32 H12       -11.3990   -0.6430   -4.0800 hc        1 MOL      0.022667
     33 H13       -11.0990   -0.0020   -2.5080 hc        1 MOL      0.022667
     34 H14       -11.3660   -2.2920   -1.4700 hc        1 MOL     -0.011776
     35 H15       -11.5990   -2.9410   -3.0710 hc        1 MOL     -0.011776
     36 H16       -13.5990   -1.4760   -3.5620 hx        1 MOL      0.088798
     37 H17       -13.4800   -0.8130   -1.9570 hx        1 MOL      0.088798
     38 H18       -13.6010   -3.3680   -1.2510 hn        1 MOL      0.259870
     39 H19       -14.8980   -2.5380   -1.5880 hn        1 MOL      0.259870
     40 H20       -14.1770   -3.5140   -2.7210 hn        1 MOL      0.259870
     41 N4         -6.4280   -1.0470   -1.0400 n         1 MOL     -0.325351
     42 C13        -4.9500   -1.3510   -0.9030 c3        1 MOL      0.137454
     43 C14        -4.5390   -2.4470    0.1050 c         1 MOL      0.488350
     44 O6         -5.0910   -2.5380    1.1560 o         1 MOL     -0.470984
     45 C15        -4.2100   -0.0150   -0.9760 c3        1 MOL     -0.142741
     46 C16        -2.6180   -0.2030   -1.0210 c         1 MOL      0.686506
     47 O7         -2.0380    0.0660   -2.1000 o         1 MOL     -0.697644
     48 O8         -2.0250   -0.7430   -0.0650 o         1 MOL     -0.697644
     49 H21        -6.8120   -0.4200   -0.3570 hn        1 MOL      0.171306
     50 H22        -4.5120   -1.8780   -1.7580 h1        1 MOL      0.016635
     51 H23        -4.4570    0.5540   -0.0800 hc        1 MOL      0.020585
     52 H24        -4.6810    0.4730   -1.8210 hc        1 MOL      0.020585
     53 N5         -3.5600   -3.3090   -0.1870 n         1 MOL     -0.356982
     54 C17        -3.2590   -4.4490    0.6890 c3        1 MOL     -0.054190
     55 C18        -2.6080   -4.0630    2.0100 c         1 MOL      0.487008
     56 O9         -2.8070   -4.6950    3.0430 o         1 MOL     -0.522722
     57 H25        -3.2360   -3.3210   -1.1480 hn        1 MOL      0.245084
     58 H26        -2.5350   -5.0670    0.1500 h1        1 MOL      0.074139
     59 H27        -4.0770   -5.1560    0.7750 h1        1 MOL      0.074139
     60 N6         -1.6880   -3.0720    2.0310 n         1 MOL     -0.210528
     61 C19        -0.7730   -2.7010    3.1460 c3        1 MOL     -0.008862
     62 C20        -0.9760   -1.2100    3.5190 c         1 MOL      0.442813
     63 O10        -0.2950   -0.6440    4.3590 o         1 MOL     -0.508857
     64 C21         0.6760   -3.0780    2.7750 c3        1 MOL     -0.277776
     65 C22         1.2770   -2.2920    1.6120 c         1 MOL      0.535263
     66 N7          2.6180   -2.2170    1.5060 n         1 MOL     -0.641267
     67 O11         0.6840   -1.7180    0.7940 o         1 MOL     -0.422902
     68 H28        -1.5350   -2.5720    1.1700 hn        1 MOL      0.003276
     69 H29        -0.9830   -3.3040    4.0200 h1        1 MOL      0.140307
     70 H30         0.6750   -4.1630    2.6270 hc        1 MOL      0.125336
     71 H31         1.3340   -2.9940    3.6360 hc        1 MOL      0.125336
     72 H32         3.1350   -2.7850    2.1520 hn        1 MOL      0.312787
     73 H33         3.0130   -1.7800    0.6880 hn        1 MOL      0.312787
     74 N8         -1.9810   -0.5450    2.8920 n         1 MOL     -0.306283
     75 C23        -2.4000    0.8210    3.2420 c3        1 MOL      0.069932
     76 C24        -1.8670    2.0010    2.3950 c         1 MOL      0.460302
     77 O12        -1.9340    3.1550    2.9000 o         1 MOL     -0.540342
     78 H34        -2.4930   -1.0690    2.1900 hn        1 MOL      0.261784
     79 H35        -2.1310    1.0810    4.2680 h1        1 MOL      0.056515
     80 H36        -3.4840    0.8360    3.1780 h1        1 MOL      0.056515
     81 N9         -1.2070    1.7040    1.2700 n         1 MOL     -0.367524
     82 C25        -0.4220    2.7540    0.6240 c3        1 MOL     -0.016857
     83 C26         0.8110    2.0780    0.0030 c         1 MOL      0.307624
     84 O13         0.7460    0.9120   -0.3990 o         1 MOL     -0.613589
     85 C27        -1.2280    3.2930   -0.6100 c3        1 MOL     -0.006038
     86 C28        -0.5540    4.2090   -1.6410 ca        1 MOL     -0.085277
     87 C29         0.1300    5.3620   -1.1980 ca        1 MOL     -0.067099
     88 C30        -0.5570    3.7950   -2.9930 ca        1 MOL     -0.067099
     89 C31         0.8030    6.1810   -2.1340 ca        1 MOL     -0.307388
     90 C32         0.0990    4.6030   -3.9310 ca        1 MOL     -0.307388
     91 C33         0.8150    5.8470   -3.5140 ca        1 MOL      0.324428
     92 O14         1.3550    6.7820   -4.3900 oh        1 MOL     -0.423988
     93 H37        -1.1760    0.7600    0.9340 hn        1 MOL      0.305777
     94 H38        -0.1640    3.5800    1.2890 h1        1 MOL      0.074225
     95 H39        -2.0800    3.8420   -0.2320 hc        1 MOL      0.060464
     96 H40        -1.7050    2.4250   -1.0700 hc        1 MOL      0.060464
     97 H41         0.0020    5.6000   -0.1480 ha        1 MOL      0.121370
     98 H42        -0.9830    2.8510   -3.3020 ha        1 MOL      0.121370
     99 H43         1.2990    7.1160   -1.8860 ha        1 MOL      0.162175
    100 H44         0.1320    4.3280   -4.9760 ha        1 MOL      0.162175
    101 H45         1.0100    6.4790   -5.2330 ho        1 MOL      0.333771
    102 N10         1.9680    2.7940    0.0600 n         1 MOL     -0.005495
    103 C34         3.2590    2.2270   -0.2970 c3        1 MOL     -0.299258
    104 C35         3.7210    1.3000    0.8370 c         1 MOL      0.222739
    105 O15         4.4360    0.2630    0.6990 o         1 MOL     -0.389054
    106 C36         4.2100    3.3800   -0.6800 c3        1 MOL      0.220306
    107 C37         3.7950    4.0720   -1.9380 c3        1 MOL     -0.003938
    108 C38         5.6540    2.9230   -0.5910 c3        1 MOL     -0.158633
    109 C39         4.5650    5.2620   -2.4520 c3        1 MOL     -0.143931
    110 H46         1.8720    3.6860    0.5230 hn        1 MOL      0.212623
    111 H47         3.1930    1.5230   -1.1270 h1        1 MOL      0.154137
    112 H48         4.1620    4.1010    0.1440 hc        1 MOL     -0.057782
    113 H49         2.7180    4.2610   -1.8290 hc        1 MOL     -0.010683
    114 H50         3.9680    3.3040   -2.6930 hc        1 MOL     -0.010683
    115 H51         6.0810    2.7040    0.3900 hc        1 MOL      0.056688
    116 H52         5.7480    2.0760   -1.2700 hc        1 MOL      0.056688
    117 H53         6.3440    3.7010   -0.9390 hc        1 MOL      0.056688
    118 H54         4.3110    5.4170   -3.5000 hc        1 MOL      0.046995
    119 H55         4.3500    6.1260   -1.8210 hc        1 MOL      0.046995
    120 H56         5.6380    5.0790   -2.4530 hc        1 MOL      0.046995
    121 N11         3.1470    1.4760    2.0310 n         1 MOL      0.125785
    122 C40         3.3310    0.7200    3.2030 c3        1 MOL     -0.152868
    123 C41         4.7470    0.5550    3.7820 c         1 MOL      0.466742
    124 O16         5.0870   -0.4640    4.4090 o         1 MOL     -0.491775
    125 C42         2.3970    1.2930    4.2930 c3        1 MOL      0.228050
    126 O17         1.2370    1.7000    3.7940 oh        1 MOL     -0.572090
    127 H57         2.7050    2.3730    2.2380 hn        1 MOL      0.136040
    128 H58         3.0070   -0.3010    3.0070 h1        1 MOL      0.080647
    129 H59         2.8740    2.2260    4.6160 h1        1 MOL     -0.004835
    130 H60         2.3080    0.6250    5.1470 h1        1 MOL     -0.004835
    131 H61         0.6010    1.5970    4.5100 ho        1 MOL      0.430710
    132 N12         5.5920    1.5370    3.4780 n         1 MOL     -0.400009
    133 C43         7.0300    1.5100    3.6670 c3        1 MOL      0.289634
    134 C44         7.7890    0.2250    3.1790 c         1 MOL      0.463852
    135 O18         8.8400   -0.1020    3.7130 o         1 MOL     -0.544861
    136 C45         7.4610    1.9520    5.0990 c3        1 MOL     -0.387208
    137 H62         5.2200    2.3150    2.9420 hn        1 MOL      0.201576
    138 H63         7.4960    2.2500    3.0180 h1        1 MOL      0.049993
    139 H64         7.4690    1.2420    5.9300 hc        1 MOL      0.099606
    140 H65         8.4130    2.4360    4.8750 hc        1 MOL      0.099606
    141 H66         6.7690    2.7080    5.4600 hc        1 MOL      0.099606
    142 N13         7.3320   -0.2960    2.0720 n         1 MOL     -0.330254
    143 C46         7.9990   -1.5070    1.4990 c3        1 MOL      0.244726
    144 C47         8.3970   -1.2200   -0.0230 c         1 MOL      0.353762
    145 O19         7.6880   -0.5040   -0.7530 o         1 MOL     -0.469166
    146 C48         7.0060   -2.7120    1.5940 c3        1 MOL     -0.131046
    147 H67         6.4980    0.0790    1.6410 hn        1 MOL      0.068605
    148 H68         8.9080   -1.8960    1.9610 h1        1 MOL      0.039299
    149 H69         6.7280   -2.9110    2.6280 hc        1 MOL      0.044486
    150 H70         6.0250   -2.5450    1.1700 hc        1 MOL      0.044486
    151 H71         7.3470   -3.6520    1.1700 hc        1 MOL      0.044486
    152 N14         9.4890   -1.7990   -0.5160 n         1 MOL     -0.489835
    153 C49         9.9740   -1.6210   -1.9340 c3        1 MOL      0.056058
    154 C50        10.2260   -0.1780   -2.4700 c         1 MOL      0.409693
    155 O20         9.9430    0.1900   -3.6350 o         1 MOL     -0.491671
    156 C51         9.0010   -2.4890   -2.8500 c3        1 MOL     -0.019450
    157 C52         9.0640   -4.0130   -2.5260 c3        1 MOL     -0.067602
    158 C53        10.5700   -4.4880   -2.4790 c         1 MOL      0.637879
    159 O21        11.2770   -4.2300   -3.4870 o         1 MOL     -0.657015
    160 O22        10.9900   -4.9600   -1.3710 o         1 MOL     -0.657015
    161 H72         9.9730   -2.4270    0.1020 hn        1 MOL      0.311645
    162 H73        10.9170   -2.1620   -1.9270 h1        1 MOL      0.109364
    163 H74         9.2970   -2.3420   -3.8820 hc        1 MOL      0.026917
    164 H75         8.0020   -2.0460   -2.7900 hc        1 MOL      0.026917
    165 H76         8.5160   -4.6350   -3.2260 hc        1 MOL     -0.024691
    166 H77         8.6530   -4.3300   -1.5610 hc        1 MOL     -0.024691
    167 N15        10.8030    0.7030   -1.6230 n         1 MOL     -0.286500
    168 C54        10.9310    2.1230   -1.9770 c3        1 MOL     -0.033646
    169 H78        10.4030    2.3140   -2.9110 h1        1 MOL      0.051872
    170 H79        10.5010    2.7360   -1.1840 h1        1 MOL      0.051872
    171 H80        11.9850    2.3740   -2.0980 h1        1 MOL      0.051872
    172 H81        11.1450    0.3680   -0.7370 hn        1 MOL      0.238148
    173 Ca1         0.0770   -1.2700   -1.7440 Ca        1 MOL      1.791714
    174 O23         2.7120   -1.8860   -2.0060 oh        1 MOL     -0.813365
    175 H82         3.6200   -1.7610   -1.7220 ho        1 MOL      0.394211
    176 H83         2.7830   -2.4360   -2.7860 ho        1 MOL      0.394211
    177 O24         0.5760   -3.9930   -1.3350 oh        1 MOL     -0.813365
    178 H84        -0.0930   -4.5180   -1.7710 ho        1 MOL      0.394211
    179 H85         1.0640   -4.6120   -0.7980 ho        1 MOL      0.394211
    180 O25         0.9330    0.4430   -3.5820 oh        1 MOL     -0.813365
    181 H86         1.8510    0.7160   -3.5350 ho        1 MOL      0.394211
    182 H87         0.5810    0.9130   -4.3480 ho        1 MOL      0.394211
    183 O26         0.6040   -2.3150   -4.0150 oh        1 MOL     -0.813365
    184 H88         0.7700   -1.6560   -4.6870 ho        1 MOL      0.394211
    185 H89         1.1650   -3.0510   -4.2520 ho        1 MOL      0.394211
    186 O27        -2.0440   -2.9240   -2.6460 oh        1 MOL     -0.813365
    187 H90        -2.5500   -2.6320   -3.3960 ho        1 MOL      0.394211
    188 H91        -2.0510   -3.8770   -2.6980 ho        1 MOL      0.394211
@<TRIPOS>BOND
     1    1    2 1   
     2    1    4 1   
     3    1    5 1   
     4    1    6 1   
     5    2    3 2   
     6    2    7 1   
     7    7    8 1   
     8    7   15 1   
     9    8    9 1   
    10    8   11 1   
    11    8   16 1   
    12    9   10 2   
    13    9   19 1   
    14   11   12 1   
    15   11   17 1   
    16   11   18 1   
    17   12   13 1   
    18   12   14 1   
    19   19   20 1   
    20   19   28 1   
    21   20   21 1   
    22   20   23 1   
    23   20   29 1   
    24   21   22 2   
    25   21   41 1   
    26   23   24 1   
    27   23   30 1   
    28   23   31 1   
    29   24   25 1   
    30   24   32 1   
    31   24   33 1   
    32   25   26 1   
    33   25   34 1   
    34   25   35 1   
    35   26   27 1   
    36   26   36 1   
    37   26   37 1   
    38   27   38 1   
    39   27   39 1   
    40   27   40 1   
    41   41   42 1   
    42   41   49 1   
    43   42   43 1   
    44   42   45 1   
    45   42   50 1   
    46   43   44 2   
    47   43   53 1   
    48   45   46 1   
    49   45   51 1   
    50   45   52 1   
    51   46   47 1   
    52   46   48 1   
    53   53   54 1   
    54   53   57 1   
    55   54   55 1   
    56   54   58 1   
    57   54   59 1   
    58   55   56 2   
    59   55   60 1   
    60   60   61 1   
    61   60   68 1   
    62   61   62 1   
    63   61   64 1   
    64   61   69 1   
    65   62   63 2   
    66   62   74 1   
    67   64   65 1   
    68   64   70 1   
    69   64   71 1   
    70   65   66 1   
    71   65   67 2   
    72   66   72 1   
    73   66   73 1   
    74   74   75 1   
    75   74   78 1   
    76   75   76 1   
    77   75   79 1   
    78   75   80 1   
    79   76   77 2   
    80   76   81 1   
    81   81   82 1   
    82   81   93 1   
    83   82   83 1   
    84   82   85 1   
    85   82   94 1   
    86   83   84 2   
    87   83  102 1   
    88   85   86 1   
    89   85   95 1   
    90   85   96 1   
    91   86   87 ar  
    92   86   88 ar  
    93   87   89 ar  
    94   87   97 1   
    95   88   90 ar  
    96   88   98 1   
    97   89   91 ar  
    98   89   99 1   
    99   90   91 ar  
   100   90  100 1   
   101   91   92 1   
   102   92  101 1   
   103  102  103 1   
   104  102  110 1   
   105  103  104 1   
   106  103  106 1   
   107  103  111 1   
   108  104  105 2   
   109  104  121 1   
   110  106  107 1   
   111  106  108 1   
   112  106  112 1   
   113  107  109 1   
   114  107  113 1   
   115  107  114 1   
   116  108  115 1   
   117  108  116 1   
   118  108  117 1   
   119  109  118 1   
   120  109  119 1   
   121  109  120 1   
   122  121  122 1   
   123  121  127 1   
   124  122  123 1   
   125  122  125 1   
   126  122  128 1   
   127  123  124 2   
   128  123  132 1   
   129  125  126 1   
   130  125  129 1   
   131  125  130 1   
   132  126  131 1   
   133  132  133 1   
   134  132  137 1   
   135  133  134 1   
   136  133  136 1   
   137  133  138 1   
   138  134  135 2   
   139  134  142 1   
   140  136  139 1   
   141  136  140 1   
   142  136  141 1   
   143  142  143 1   
   144  142  147 1   
   145  143  144 1   
   146  143  146 1   
   147  143  148 1   
   148  144  145 2   
   149  144  152 1   
   150  146  149 1   
   151  146  150 1   
   152  146  151 1   
   153  152  153 1   
   154  152  161 1   
   155  153  154 1   
   156  153  156 1   
   157  153  162 1   
   158  154  155 2   
   159  154  167 1   
   160  156  157 1   
   161  156  163 1   
   162  156  164 1   
   163  157  158 1   
   164  157  165 1   
   165  157  166 1   
   166  158  159 1   
   167  158  160 1   
   168  167  168 1   
   169  167  172 1   
   170  168  169 1   
   171  168  170 1   
   172  168  171 1   
   173  174  175 1   
   174  174  176 1   
   175  177  178 1   
   176  177  179 1   
   177  180  181 1   
   178  180  182 1   
   179  183  184 1   
   180  183  185 1   
   181  186  187 1   
   182  186  188 1   
@<TRIPOS>SUBSTRUCTURE
     1 MOL         1 TEMP              0 ****  ****    0 ROOT
