@<TRIPOS>MOLECULE
MOL
  178   175     1     0     0
SMALL
resp


@<TRIPOS>ATOM
      1 C1          3.0160   -0.9280    4.4150 c3        1 MOL     -0.460587
      2 C2          4.2120   -0.0950    4.0190 c         1 MOL      0.730825
      3 O1          4.1760    1.1000    3.9760 o         1 MOL     -0.560136
      4 H1          2.9480   -0.9720    5.5020 hc        1 MOL      0.107828
      5 H2          2.1080   -0.4780    4.0130 hc        1 MOL      0.107828
      6 H3          3.1280   -1.9380    4.0180 hc        1 MOL      0.107828
      7 N1          5.2700   -0.8030    3.7540 n         1 MOL     -0.567657
      8 C3          6.5900   -0.3030    3.4010 c3        1 MOL      0.076716
      9 C4          7.2420   -1.0470    2.2100 c         1 MOL      0.514387
     10 O2          8.0970   -0.5290    1.5350 o         1 MOL     -0.470075
     11 C5          7.5190   -0.2770    4.5940 c3        1 MOL     -0.056601
     12 C6          8.9360    0.1940    4.3410 c         1 MOL      0.710275
     13 O3          9.8720   -0.6110    4.2810 o         1 MOL     -0.730835
     14 O4          9.0680    1.4240    4.2640 o         1 MOL     -0.730835
     15 H4          5.0740   -1.7820    3.8920 hn        1 MOL      0.288271
     16 H5          6.4690    0.7400    3.1440 h1        1 MOL      0.057716
     17 H6          7.6550   -1.2650    5.0470 hc        1 MOL     -0.021569
     18 H7          7.1280    0.3230    5.4070 hc        1 MOL     -0.021569
     19 N2          6.8000   -2.2930    2.1220 n         1 MOL     -0.474806
     20 C7          7.2200   -3.3790    1.1850 c3        1 MOL      0.247673
     21 C8          6.6050   -3.2200   -0.2540 c         1 MOL      0.403208
     22 O5          7.2990   -3.3330   -1.2460 o         1 MOL     -0.459395
     23 C9          8.7650   -3.6210    1.1940 c3        1 MOL     -0.505492
     24 H8          6.0720   -2.5510    2.7820 hn        1 MOL      0.236694
     25 H9          6.8500   -4.2950    1.6540 h1        1 MOL      0.002200
     26 H10         8.9620   -4.5900    0.7470 hc        1 MOL      0.151982
     27 H11         9.2510   -2.8340    0.6160 hc        1 MOL      0.151982
     28 H12         9.1750   -3.6150    2.2060 hc        1 MOL      0.151982
     29 N3          5.2820   -3.1070   -0.2890 n         1 MOL     -0.397110
     30 C10         4.4990   -2.8340   -1.5050 c3        1 MOL     -0.230416
     31 C11         5.0170   -1.6480   -2.2180 c         1 MOL      0.485703
     32 O6          5.2140   -1.6610   -3.4180 o         1 MOL     -0.416968
     33 C12         4.5880   -4.0640   -2.3960 c3        1 MOL      0.048590
     34 C13         3.4830   -4.1810   -3.3790 c         1 MOL      0.589167
     35 O7          3.6340   -3.8850   -4.5830 o         1 MOL     -0.685632
     36 O8          2.3360   -4.6250   -2.9550 o         1 MOL     -0.685632
     37 H13         4.6870   -3.1350    0.5400 hn        1 MOL      0.245256
     38 H14         3.4940   -2.6890   -1.1200 h1        1 MOL      0.178399
     39 H15         4.2960   -4.8840   -1.7450 hc        1 MOL      0.011453
     40 H16         5.5800   -4.2100   -2.8160 hc        1 MOL      0.011453
     41 N4          5.3750   -0.6210   -1.4290 n         1 MOL     -0.209607
     42 C14         5.7310    0.7900   -1.8590 c3        1 MOL      0.005002
     43 C15         4.7350    1.3110   -2.9020 c         1 MOL      0.546206
     44 O9          5.1500    1.5530   -4.0160 o         1 MOL     -0.539203
     45 H17         5.2020   -0.7330   -0.4400 hn        1 MOL      0.187792
     46 H18         6.7410    0.9240   -2.2430 h1        1 MOL      0.043863
     47 H19         5.6700    1.4700   -1.0170 h1        1 MOL      0.043863
     48 N5          3.4590    1.4460   -2.6100 n         1 MOL     -0.355747
     49 C16         2.3160    1.6980   -3.4430 c3        1 MOL     -0.281939
     50 C17         1.7990    3.1960   -3.5000 c         1 MOL      0.571033
     51 O10         0.6950    3.4860   -3.9000 o         1 MOL     -0.497156
     52 C18         1.1890    0.6760   -3.0690 c3        1 MOL     -0.161701
     53 C19         1.6140   -0.7780   -3.3350 c         1 MOL      0.673757
     54 N6          2.2460   -1.0630   -4.4620 n         1 MOL     -0.816649
     55 O11         1.3370   -1.6600   -2.4920 o         1 MOL     -0.696739
     56 H20         3.2200    1.4280   -1.6270 hn        1 MOL      0.247979
     57 H21         2.6100    1.4360   -4.4540 h1        1 MOL      0.129515
     58 H22         0.3580    0.7920   -3.7750 hc        1 MOL      0.122856
     59 H23         0.8280    0.8540   -2.0580 hc        1 MOL      0.122856
     60 H24         2.3600   -0.3160   -5.1330 hn        1 MOL      0.400638
     61 H25         2.6830   -1.9600   -4.6270 hn        1 MOL      0.400638
     62 N7          2.6460    4.1280   -3.0580 n         1 MOL     -0.295748
     63 C20         2.4870    5.5410   -3.1820 c3        1 MOL      0.009496
     64 C21         1.2800    6.2100   -2.5990 c         1 MOL      0.383540
     65 O12         0.1830    5.9100   -3.0210 o         1 MOL     -0.423027
     66 H26         3.5000    3.8110   -2.6140 hn        1 MOL      0.229209
     67 H27         2.7900    5.8950   -4.1640 h1        1 MOL      0.040303
     68 H28         3.2930    6.0270   -2.6330 h1        1 MOL      0.040303
     69 N8          1.3590    7.0250   -1.5530 n         1 MOL     -0.221918
     70 C22         0.1310    7.6500   -0.8920 c3        1 MOL     -0.507664
     71 C23        -0.7990    6.7130   -0.1370 c         1 MOL      0.543879
     72 O13        -1.9690    7.0640    0.0090 o         1 MOL     -0.557947
     73 C24         0.5070    8.8580   -0.0270 c3        1 MOL      0.584507
     74 C25         1.2320    8.6060    1.2410 c3        1 MOL     -0.233649
     75 O14         1.2750    9.7180   -0.8080 oh        1 MOL     -0.655580
     76 H29         2.2440    7.3710   -1.2080 hn        1 MOL      0.206875
     77 H30        -0.5040    7.9690   -1.7140 h1        1 MOL      0.212704
     78 H31        -0.3650    9.3860    0.3410 h1        1 MOL      0.014965
     79 H32         2.1470    9.3240   -0.8890 ho        1 MOL      0.384963
     80 H33         1.8970    9.4640    1.4070 hc        1 MOL      0.040971
     81 H34         0.5320    8.4170    2.0510 hc        1 MOL      0.040971
     82 H35         1.7910    7.6750    1.1570 hc        1 MOL      0.040971
     83 N9         -0.3430    5.4950    0.2670 n         1 MOL      0.028433
     84 C26        -1.1080    4.4950    0.9290 c3        1 MOL     -0.313515
     85 C27        -1.1020    3.0270    0.2980 c         1 MOL      0.575846
     86 O15        -0.1820    2.7280   -0.4750 o         1 MOL     -0.495186
     87 C28        -0.6980    4.4210    2.4210 c3        1 MOL      0.102222
     88 C29         0.7930    3.9810    2.6350 c3        1 MOL      0.041626
     89 C30        -1.0660    5.7720    3.1680 c3        1 MOL     -0.385667
     90 C31         1.2800    3.9240    4.0840 c3        1 MOL     -0.279306
     91 H36         0.6140    5.2880    0.0210 hn        1 MOL      0.097379
     92 H37        -2.1600    4.7960    0.9820 h1        1 MOL      0.129670
     93 H38        -1.2540    3.6110    2.8920 hc        1 MOL      0.020355
     94 H39         1.4740    4.6960    2.1610 hc        1 MOL      0.037773
     95 H40         0.9660    2.9760    2.2710 hc        1 MOL      0.037773
     96 H41        -0.5120    6.6350    2.7930 hc        1 MOL      0.097927
     97 H42        -2.1240    5.9020    2.9600 hc        1 MOL      0.097927
     98 H43        -0.9130    5.7140    4.2500 hc        1 MOL      0.097927
     99 H44         2.3210    3.6120    4.0240 hc        1 MOL      0.075497
    100 H45         1.2000    4.9290    4.4970 hc        1 MOL      0.075497
    101 H46         0.5780    3.2570    4.5900 hc        1 MOL      0.075497
    102 N10        -1.9990    2.1850    0.7240 n         1 MOL     -0.592196
    103 C32        -2.2250    0.7980    0.1110 c3        1 MOL      0.326214
    104 C33        -3.6340    0.2780    0.0890 c         1 MOL      0.405948
    105 O16        -3.9610   -0.8690   -0.1920 o         1 MOL     -0.420266
    106 C34        -1.2240   -0.1990    0.6880 c3        1 MOL     -0.206978
    107 C35        -0.8780   -1.4790   -0.1360 c         1 MOL      0.547338
    108 O17         0.0670   -2.1710    0.3260 o         1 MOL     -0.661237
    109 O18        -1.4020   -1.8070   -1.2300 o         1 MOL     -0.661237
    110 H47        -2.6110    2.4470    1.4850 hn        1 MOL      0.314843
    111 H48        -1.9120    0.8210   -0.9330 h1        1 MOL      0.025686
    112 H49        -1.4920   -0.4920    1.7040 hc        1 MOL      0.070844
    113 H50        -0.2560    0.2980    0.7500 hc        1 MOL      0.070844
    114 N11        -4.6030    1.1570    0.1940 n         1 MOL     -0.436300
    115 C36        -6.0500    0.7970   -0.0490 c3        1 MOL      0.233766
    116 C37        -6.5380   -0.4620    0.7290 c         1 MOL      0.304568
    117 O19        -6.3300   -0.4450    1.9800 o         1 MOL     -0.521705
    118 C38        -6.8900    2.0360    0.0660 c3        1 MOL     -0.222510
    119 C39        -8.3720    1.8010   -0.2280 ca        1 MOL      0.012130
    120 C40        -8.8830    2.1010   -1.4820 ca        1 MOL     -0.097454
    121 C41        -9.2300    1.2760    0.7580 ca        1 MOL     -0.097454
    122 C42       -10.1960    1.7770   -1.8360 ca        1 MOL     -0.141972
    123 C43       -10.4680    0.8880    0.3790 ca        1 MOL     -0.141972
    124 C44       -10.9970    1.1690   -0.8590 ca        1 MOL     -0.090121
    125 H51        -4.3360    2.1110    0.4150 hn        1 MOL      0.219729
    126 H52        -6.0240    0.5050   -1.0980 h1        1 MOL      0.015364
    127 H53        -6.5140    2.8370   -0.5670 hc        1 MOL      0.101472
    128 H54        -6.8600    2.4630    1.0670 hc        1 MOL      0.101472
    129 H55        -8.2160    2.6910   -2.0980 ha        1 MOL      0.106095
    130 H56        -8.8240    1.0930    1.7400 ha        1 MOL      0.106095
    131 H57       -10.4600    2.0100   -2.8630 ha        1 MOL      0.112634
    132 H58       -11.0310    0.4390    1.1800 ha        1 MOL      0.112634
    133 H59       -11.9630    0.8240   -1.1830 ha        1 MOL      0.097820
    134 N12        -7.1420   -1.5270    0.1290 n         1 MOL     -0.035361
    135 C45        -7.6860   -2.6720    0.8790 c3        1 MOL      0.132467
    136 C46        -6.7480   -3.3340    1.8640 c         1 MOL      0.172254
    137 O20        -7.1650   -4.0410    2.7850 o         1 MOL     -0.503393
    138 C47        -8.1560   -3.6330   -0.2500 c3        1 MOL      0.022766
    139 C48        -8.3650   -2.7310   -1.4570 c3        1 MOL     -0.299626
    140 C49        -7.3700   -1.5570   -1.2740 c3        1 MOL      0.134745
    141 H60        -8.5790   -2.3260    1.3960 h1        1 MOL      0.045316
    142 H61        -7.3320   -4.3270   -0.3870 hc        1 MOL      0.036326
    143 H62        -8.9860   -4.1850    0.1850 hc        1 MOL      0.036326
    144 H63        -8.0670   -3.3300   -2.3170 hc        1 MOL      0.083153
    145 H64        -9.3780   -2.3260   -1.5640 hc        1 MOL      0.083153
    146 H65        -6.4030   -1.8060   -1.7070 h1        1 MOL      0.019661
    147 H66        -7.6370   -0.5800   -1.6600 h1        1 MOL      0.019661
    148 N13        -5.4330   -3.1550    1.7680 n         1 MOL      0.012773
    149 C50        -4.4010   -3.7310    2.6170 c3        1 MOL     -0.122221
    150 C51        -4.0280   -2.7960    3.7930 c         1 MOL      0.364116
    151 O21        -3.4280   -3.2450    4.8250 o         1 MOL     -0.549957
    152 C52        -3.1120   -4.0040    1.7610 c3        1 MOL      0.195369
    153 C53        -3.4140   -5.0750    0.7560 c3        1 MOL     -0.137678
    154 C54        -2.2530   -5.0600   -0.3150 c         1 MOL      0.521646
    155 O22        -1.0970   -5.1870    0.1610 o         1 MOL     -0.697773
    156 O23        -2.4290   -4.6870   -1.4810 o         1 MOL     -0.697773
    157 H67        -5.1110   -2.4830    1.0970 hn        1 MOL      0.118374
    158 H68        -4.8400   -4.6680    2.9430 h1        1 MOL      0.108331
    159 H69        -2.3440   -4.5000    2.3590 hc        1 MOL     -0.002730
    160 H70        -2.6670   -3.1070    1.3570 hc        1 MOL     -0.002730
    161 H71        -4.3610   -4.9620    0.2380 hc        1 MOL      0.016439
    162 H72        -3.3190   -6.0270    1.2790 hc        1 MOL      0.016439
    163 N14        -4.3130   -1.4780    3.7590 n         1 MOL     -0.085252
    164 C55        -4.0960   -0.4830    4.8260 c3        1 MOL     -0.178280
    165 H73        -3.5480    0.3680    4.4230 h1        1 MOL      0.078572
    166 H74        -5.0590   -0.1450    5.2090 h1        1 MOL      0.078572
    167 H75        -3.5220   -0.9350    5.6340 h1        1 MOL      0.078572
    168 H76        -4.6260   -1.0930    2.8680 hn        1 MOL      0.140875
    169 Ca1         0.1310   -4.0180   -1.7980 Ca        1 MOL      1.786068
    170 O24        -0.5820   -3.1420   -4.2800 oh        1 MOL     -0.838098
    171 H77        -0.4200   -2.2220   -4.4870 ho        1 MOL      0.409306
    172 H78        -0.6610   -3.5730   -5.1330 ho        1 MOL      0.409306
    173 O25         1.9730   -4.9930    0.1720 oh        1 MOL     -0.838098
    174 H79         2.6370   -4.6460    0.7610 ho        1 MOL      0.409306
    175 H80         1.9390   -5.9280    0.3750 ho        1 MOL      0.409306
    176 O26        -0.0900   -6.5200   -2.6360 oh        1 MOL     -0.838098
    177 H81        -0.4560   -6.9870   -3.3820 ho        1 MOL      0.409306
    178 H82        -0.3550   -7.0240   -1.8770 ho        1 MOL      0.409306
@<TRIPOS>BOND
     1    1    2 1   
     2    1    4 1   
     3    1    5 1   
     4    1    6 1   
     5    2    3 2   
     6    2    7 1   
     7    7    8 1   
     8    7   15 1   
     9    8    9 1   
    10    8   11 1   
    11    8   16 1   
    12    9   10 2   
    13    9   19 1   
    14   11   12 1   
    15   11   17 1   
    16   11   18 1   
    17   12   13 1   
    18   12   14 1   
    19   19   20 1   
    20   19   24 1   
    21   20   21 1   
    22   20   23 1   
    23   20   25 1   
    24   21   22 2   
    25   21   29 1   
    26   23   26 1   
    27   23   27 1   
    28   23   28 1   
    29   29   30 1   
    30   29   37 1   
    31   30   31 1   
    32   30   33 1   
    33   30   38 1   
    34   31   32 2   
    35   31   41 1   
    36   33   34 1   
    37   33   39 1   
    38   33   40 1   
    39   34   35 1   
    40   34   36 1   
    41   41   42 1   
    42   41   45 1   
    43   42   43 1   
    44   42   46 1   
    45   42   47 1   
    46   43   44 2   
    47   43   48 1   
    48   48   49 1   
    49   48   56 1   
    50   49   50 1   
    51   49   52 1   
    52   49   57 1   
    53   50   51 2   
    54   50   62 1   
    55   52   53 1   
    56   52   58 1   
    57   52   59 1   
    58   53   54 1   
    59   53   55 2   
    60   54   60 1   
    61   54   61 1   
    62   62   63 1   
    63   62   66 1   
    64   63   64 1   
    65   63   67 1   
    66   63   68 1   
    67   64   65 2   
    68   64   69 1   
    69   69   70 1   
    70   69   76 1   
    71   70   71 1   
    72   70   73 1   
    73   70   77 1   
    74   71   72 2   
    75   71   83 1   
    76   73   74 1   
    77   73   75 1   
    78   73   78 1   
    79   74   80 1   
    80   74   81 1   
    81   74   82 1   
    82   75   79 1   
    83   83   84 1   
    84   83   91 1   
    85   84   85 1   
    86   84   87 1   
    87   84   92 1   
    88   85   86 2   
    89   85  102 1   
    90   87   88 1   
    91   87   89 1   
    92   87   93 1   
    93   88   90 1   
    94   88   94 1   
    95   88   95 1   
    96   89   96 1   
    97   89   97 1   
    98   89   98 1   
    99   90   99 1   
   100   90  100 1   
   101   90  101 1   
   102  102  103 1   
   103  102  110 1   
   104  103  104 1   
   105  103  106 1   
   106  103  111 1   
   107  104  105 2   
   108  104  114 1   
   109  106  107 1   
   110  106  112 1   
   111  106  113 1   
   112  107  108 1   
   113  107  109 1   
   114  114  115 1   
   115  114  125 1   
   116  115  116 1   
   117  115  118 1   
   118  115  126 1   
   119  116  117 2   
   120  116  134 1   
   121  118  119 1   
   122  118  127 1   
   123  118  128 1   
   124  119  120 ar  
   125  119  121 ar  
   126  120  122 ar  
   127  120  129 1   
   128  121  123 ar  
   129  121  130 1   
   130  122  124 ar  
   131  122  131 1   
   132  123  124 ar  
   133  123  132 1   
   134  124  133 1   
   135  134  135 1   
   136  134  140 1   
   137  135  136 1   
   138  135  138 1   
   139  135  141 1   
   140  136  137 2   
   141  136  148 1   
   142  138  139 1   
   143  138  142 1   
   144  138  143 1   
   145  139  140 1   
   146  139  144 1   
   147  139  145 1   
   148  140  146 1   
   149  140  147 1   
   150  148  149 1   
   151  148  157 1   
   152  149  150 1   
   153  149  152 1   
   154  149  158 1   
   155  150  151 2   
   156  150  163 1   
   157  152  153 1   
   158  152  159 1   
   159  152  160 1   
   160  153  154 1   
   161  153  161 1   
   162  153  162 1   
   163  154  155 1   
   164  154  156 1   
   165  163  164 1   
   166  163  168 1   
   167  164  165 1   
   168  164  166 1   
   169  164  167 1   
   170  170  171 1   
   171  170  172 1   
   172  173  174 1   
   173  173  175 1   
   174  176  177 1   
   175  176  178 1   
@<TRIPOS>SUBSTRUCTURE
     1 MOL         1 TEMP              0 ****  ****    0 ROOT
