@<TRIPOS>MOLECULE
MOL
  188   182     1     0     0
SMALL
resp


@<TRIPOS>ATOM
      1 C1          5.0500    1.3910    4.0460 c3        1 MOL     -0.270855
      2 C2          5.8760    1.5160    2.7510 c         1 MOL      0.563969
      3 O1          5.5210    1.4020    1.5890 o         1 MOL     -0.396211
      4 H1          5.7220    1.2800    4.8960 hc        1 MOL      0.073346
      5 H2          4.4430    2.2860    4.1780 hc        1 MOL      0.073346
      6 H3          4.4010    0.5170    3.9800 hc        1 MOL      0.073346
      7 N1          7.1800    1.8030    2.9190 n         1 MOL     -0.605909
      8 C3          8.2090    2.0180    1.9610 c3        1 MOL      0.336433
      9 C4          8.1280    1.0950    0.7140 c         1 MOL      0.140465
     10 O2          7.9390    1.5640   -0.4160 o         1 MOL     -0.416166
     11 C5          8.3300    3.5580    1.6460 c3        1 MOL     -0.358436
     12 C6          9.6130    3.8370    0.8320 c         1 MOL      0.766781
     13 O3         10.4530    2.9200    0.5890 o         1 MOL     -0.667918
     14 O4         10.0000    4.9840    0.5760 o         1 MOL     -0.667918
     15 H4          7.4860    1.8970    3.8730 hn        1 MOL      0.319503
     16 H5          9.1450    1.7190    2.4270 h1        1 MOL      0.009783
     17 H6          8.4830    4.1080    2.5810 hc        1 MOL      0.083064
     18 H7          7.4310    3.9010    1.1490 hc        1 MOL      0.083064
     19 N2          8.1700   -0.1970    0.9270 n         1 MOL     -0.307973
     20 C7          7.9910   -1.2750   -0.0790 c3        1 MOL      0.220756
     21 C8          6.6890   -2.0030    0.2120 c         1 MOL      0.485331
     22 O5          6.7360   -3.2010    0.0200 o         1 MOL     -0.590423
     23 C9          9.3280   -2.1140   -0.0810 c3        1 MOL     -0.026365
     24 C10        10.6250   -1.3600   -0.4420 c3        1 MOL      0.045529
     25 C11        11.7630   -2.4080   -0.5310 c3        1 MOL     -0.109315
     26 C12        11.8070   -2.9200   -2.0170 c3        1 MOL     -0.018700
     27 N3         12.3460   -4.2860   -2.1070 n4        1 MOL     -0.253266
     28 H8          8.3640   -0.4630    1.8950 hn        1 MOL      0.225199
     29 H9          7.8540   -0.8630   -1.0830 h1        1 MOL      0.056095
     30 H10         9.2990   -2.8680   -0.8660 hc        1 MOL     -0.007246
     31 H11         9.3580   -2.5860    0.8950 hc        1 MOL     -0.007246
     32 H12        10.8610   -0.7620    0.4370 hc        1 MOL      0.039884
     33 H13        10.5640   -0.7290   -1.3290 hc        1 MOL      0.039884
     34 H14        11.4710   -3.1680    0.1910 hc        1 MOL      0.056793
     35 H15        12.6790   -1.9370   -0.1550 hc        1 MOL      0.056793
     36 H16        12.5240   -2.3070   -2.5740 hx        1 MOL      0.100035
     37 H17        10.8400   -2.8890   -2.5200 hx        1 MOL      0.100035
     38 H18        12.4530   -4.4700   -3.0940 hn        1 MOL      0.262220
     39 H19        13.1490   -4.4210   -1.5140 hn        1 MOL      0.262220
     40 H20        11.5840   -4.8660   -1.7970 hn        1 MOL      0.262220
     41 N4          5.6160   -1.3240    0.5500 n         1 MOL     -0.383022
     42 C13         4.2470   -1.8000    0.7540 c3        1 MOL     -0.026025
     43 C14         3.8100   -2.5950   -0.4840 c         1 MOL      0.563813
     44 O6          3.9800   -2.0740   -1.5480 o         1 MOL     -0.465950
     45 C15         3.2840   -0.6380    1.1310 c3        1 MOL     -0.231133
     46 C16         1.8090   -1.0950    1.1970 c         1 MOL      0.506773
     47 O7          1.3540   -1.5090    2.3280 o         1 MOL     -0.632241
     48 O8          1.0540   -0.9940    0.1680 o         1 MOL     -0.632241
     49 H21         5.8250   -0.4260    0.9630 hn        1 MOL      0.209292
     50 H22         4.2840   -2.4650    1.6210 h1        1 MOL      0.054618
     51 H23         3.3320    0.1900    0.4390 hc        1 MOL      0.149064
     52 H24         3.5370   -0.2740    2.1270 hc        1 MOL      0.149064
     53 N5          3.1290   -3.7150   -0.3410 n         1 MOL     -0.163823
     54 C17         2.9400   -4.8410   -1.3140 c3        1 MOL     -0.305896
     55 C18         2.1270   -4.4420   -2.5280 c         1 MOL      0.683960
     56 O9          2.2880   -5.0410   -3.5280 o         1 MOL     -0.575000
     57 H25         3.0870   -3.9170    0.6460 hn        1 MOL      0.179100
     58 H26         2.4610   -5.7540   -0.9610 h1        1 MOL      0.133226
     59 H27         3.9120   -5.0060   -1.7720 h1        1 MOL      0.133226
     60 N6          1.1790   -3.5220   -2.4330 n         1 MOL     -0.352011
     61 C19         0.5010   -2.8340   -3.5490 c3        1 MOL     -0.003129
     62 C20         0.7430   -1.3500   -3.6100 c         1 MOL      0.445603
     63 O10         0.3560   -0.6960   -4.5830 o         1 MOL     -0.560186
     64 C21        -1.0360   -3.2300   -3.4240 c3        1 MOL     -0.185086
     65 C22        -1.7730   -2.2840   -2.5280 c         1 MOL      0.665775
     66 N7         -2.9190   -1.7980   -2.8570 n         1 MOL     -0.766199
     67 O11        -1.3060   -2.0720   -1.4260 o         1 MOL     -0.607378
     68 H28         1.0520   -3.1040   -1.5290 hn        1 MOL      0.243217
     69 H29         0.7630   -3.3270   -4.4820 h1        1 MOL      0.113607
     70 H30        -1.1840   -4.2590   -3.1120 hc        1 MOL      0.081276
     71 H31        -1.5230   -3.1770   -4.3950 hc        1 MOL      0.081276
     72 H32        -3.5000   -1.9250   -3.6730 hn        1 MOL      0.369009
     73 H33        -3.2850   -1.2410   -2.1070 hn        1 MOL      0.369009
     74 N8          1.5200   -0.8010   -2.6950 n         1 MOL      0.081322
     75 C23         2.1400    0.5240   -2.8090 c3        1 MOL     -0.285049
     76 C24         1.4020    1.6660   -2.1850 c         1 MOL      0.499638
     77 O12         1.5400    2.8100   -2.6200 o         1 MOL     -0.539649
     78 H34         1.8580   -1.3520   -1.9110 hn        1 MOL     -0.145930
     79 H35         2.3460    0.6770   -3.8630 h1        1 MOL      0.153534
     80 H36         3.0680    0.5170   -2.2330 h1        1 MOL      0.153534
     81 N9          0.7110    1.4430   -1.0930 n         1 MOL     -0.226437
     82 C25        -0.0570    2.4400   -0.3330 c3        1 MOL      0.542920
     83 C26        -1.3750    1.8530    0.0200 c         1 MOL     -0.008678
     84 O13        -1.5420    0.5960    0.2200 o         1 MOL     -0.275891
     85 C27         0.6320    3.0250    0.8990 c3        1 MOL      0.044703
     86 C28         1.7080    4.0180    0.5530 ca        1 MOL     -0.242684
     87 C29         1.4830    5.3120   -0.0070 ca        1 MOL      0.054661
     88 C30         3.0470    3.7600    0.7360 ca        1 MOL      0.054661
     89 C31         2.4680    6.2670   -0.3430 ca        1 MOL     -0.420828
     90 C32         4.0690    4.7260    0.4840 ca        1 MOL     -0.420828
     91 C33         3.7790    5.9390   -0.1110 ca        1 MOL      0.537380
     92 O14         4.7470    6.8780   -0.2860 oh        1 MOL     -0.548702
     93 H37         0.6860    0.5120   -0.7240 hn        1 MOL     -0.016353
     94 H38        -0.2910    3.2430   -1.0330 h1        1 MOL     -0.056465
     95 H39         1.0410    2.2860    1.5790 hc        1 MOL      0.002279
     96 H40        -0.1990    3.4220    1.4850 hc        1 MOL      0.002279
     97 H41         0.4420    5.5830   -0.0650 ha        1 MOL      0.036979
     98 H42         3.2890    2.8630    1.2910 ha        1 MOL      0.036979
     99 H43         2.1460    7.2310   -0.7090 ha        1 MOL      0.195281
    100 H44         5.0720    4.4570    0.7990 ha        1 MOL      0.195281
    101 H45         5.5910    6.5110   -0.0080 ho        1 MOL      0.394843
    102 N10        -2.3740    2.7590    0.1040 n         1 MOL     -0.268417
    103 C34        -3.7150    2.3840    0.6290 c3        1 MOL     -0.115626
    104 C35        -4.6810    2.2000   -0.5350 c         1 MOL      0.572161
    105 O15        -5.3280    1.1430   -0.5170 o         1 MOL     -0.473907
    106 C36        -4.2980    3.3110    1.7760 c3        1 MOL      0.013411
    107 C37        -3.1890    3.8560    2.8190 c3        1 MOL     -0.034333
    108 C38        -5.5410    2.6170    2.3380 c3        1 MOL     -0.228428
    109 C39        -2.7370    2.8320    3.8050 c3        1 MOL     -0.105051
    110 H46        -2.1370    3.7230   -0.1070 hn        1 MOL      0.266606
    111 H47        -3.7010    1.4530    1.1990 h1        1 MOL      0.116366
    112 H48        -4.5930    4.2600    1.3260 hc        1 MOL     -0.025608
    113 H49        -3.6070    4.7280    3.3260 hc        1 MOL      0.040018
    114 H50        -2.2590    4.2020    2.3740 hc        1 MOL      0.040018
    115 H51        -6.3220    2.3890    1.6140 hc        1 MOL      0.085881
    116 H52        -5.2590    1.6790    2.7930 hc        1 MOL      0.085881
    117 H53        -6.1150    3.1280    3.1040 hc        1 MOL      0.085881
    118 H54        -2.1280    2.0420    3.3720 hc        1 MOL      0.032414
    119 H55        -2.1660    3.3880    4.5560 hc        1 MOL      0.032414
    120 H56        -3.5930    2.3730    4.3140 hc        1 MOL      0.032414
    121 N11        -4.7100    3.1480   -1.4720 n         1 MOL     -0.376068
    122 C40        -5.4750    3.1740   -2.7390 c3        1 MOL      0.041339
    123 C41        -6.9030    2.8580   -2.5130 c         1 MOL      0.314073
    124 O16        -7.4460    2.0680   -3.2850 o         1 MOL     -0.469265
    125 C42        -5.4080    4.6090   -3.4010 c3        1 MOL      0.109327
    126 O17        -4.0740    4.7920   -3.8800 oh        1 MOL     -0.585904
    127 H57        -3.9930    3.8620   -1.4140 hn        1 MOL      0.295579
    128 H58        -5.0180    2.4350   -3.4000 h1        1 MOL      0.139383
    129 H59        -5.5040    5.4460   -2.7030 h1        1 MOL      0.050576
    130 H60        -6.0860    4.7720   -4.2320 h1        1 MOL      0.050576
    131 H61        -4.1970    5.5230   -4.4880 ho        1 MOL      0.409387
    132 N12        -7.5000    3.2440   -1.3490 n         1 MOL     -0.293915
    133 C43        -8.8610    2.7990   -1.0350 c3        1 MOL      0.223040
    134 C44        -9.1010    1.2880   -0.8690 c         1 MOL      0.544052
    135 O18       -10.1890    0.8270   -1.1400 o         1 MOL     -0.527406
    136 C45        -9.8300    3.6990   -1.8520 c3        1 MOL     -0.465268
    137 H62        -6.9760    3.9030   -0.8040 hn        1 MOL      0.207727
    138 H63        -8.9670    3.0320    0.0220 h1        1 MOL      0.036178
    139 H64       -10.8360    3.3440   -1.6100 hc        1 MOL      0.134322
    140 H65        -9.6600    4.7620   -1.7330 hc        1 MOL      0.134322
    141 H66        -9.5460    3.6240   -2.9050 hc        1 MOL      0.134322
    142 N13        -8.0420    0.5140   -0.5430 n         1 MOL     -0.533096
    143 C46        -8.0290   -0.9180   -0.6970 c3        1 MOL      0.492414
    144 C47        -7.3280   -1.5160    0.5300 c         1 MOL      0.326056
    145 O19        -6.6930   -0.9450    1.3920 o         1 MOL     -0.372068
    146 C48        -7.4070   -1.2880   -2.1080 c3        1 MOL     -0.374109
    147 H67        -7.1920    0.9900   -0.3050 hn        1 MOL      0.096809
    148 H68        -9.0790   -1.2270   -0.7730 h1        1 MOL     -0.015262
    149 H69        -8.0630   -0.8540   -2.8740 hc        1 MOL      0.105274
    150 H70        -6.3710   -0.9680   -2.1840 hc        1 MOL      0.105274
    151 H71        -7.3350   -2.3710   -2.1710 hc        1 MOL      0.105274
    152 N14        -7.5500   -2.8420    0.5230 n         1 MOL     -0.573888
    153 C49        -7.0590   -3.6670    1.6750 c3        1 MOL      0.087409
    154 C50        -7.5360   -3.1710    3.0170 c         1 MOL      0.398888
    155 O20        -6.8560   -3.3110    4.0220 o         1 MOL     -0.493555
    156 C51        -5.5440   -3.9360    1.6360 c3        1 MOL      0.175200
    157 C52        -4.9660   -4.4710    0.3890 c3        1 MOL      0.076683
    158 C53        -3.4910   -4.7300    0.6480 c         1 MOL      0.621904
    159 O21        -3.0800   -5.9430    0.5290 o         1 MOL     -0.687227
    160 O22        -2.7110   -3.8720    1.0290 o         1 MOL     -0.687227
    161 H72        -7.9630   -3.3480   -0.2430 hn        1 MOL      0.324098
    162 H73        -7.5720   -4.6330    1.6070 h1        1 MOL      0.042272
    163 H74        -5.3800   -4.6580    2.4330 hc        1 MOL     -0.054031
    164 H75        -4.9780   -3.1040    2.0390 hc        1 MOL     -0.054031
    165 H76        -5.0490   -3.7230   -0.4010 hc        1 MOL     -0.061124
    166 H77        -5.3730   -5.4400    0.0930 hc        1 MOL     -0.061124
    167 N15        -8.6410   -2.4610    3.1270 n         1 MOL     -0.271160
    168 C54        -9.0420   -1.5450    4.2210 c3        1 MOL     -0.199147
    169 H78        -9.3810   -2.1280    5.0770 h1        1 MOL      0.103372
    170 H79        -8.1890   -0.9330    4.5140 h1        1 MOL      0.103372
    171 H80        -9.8520   -0.9010    3.8780 h1        1 MOL      0.103372
    172 H81        -9.2540   -2.3780    2.3310 hn        1 MOL      0.228717
    173 Ca1        -1.2200   -1.8020    1.1370 Ca        1 MOL      1.685286
    174 O23        -0.4380    0.0860    3.3960 oh        1 MOL     -0.814125
    175 H82        -0.3180    0.5350    4.2360 ho        1 MOL      0.399501
    176 H83         0.4480    0.0040    3.0520 ho        1 MOL      0.399501
    177 O24        -3.0560   -0.4060    2.8970 oh        1 MOL     -0.814125
    178 H84        -2.3950    0.1000    3.3670 ho        1 MOL      0.399501
    179 H85        -3.2340   -1.1550    3.4730 ho        1 MOL      0.399501
    180 O25        -1.0150   -3.0730    3.5680 oh        1 MOL     -0.814125
    181 H86        -1.8880   -3.0300    3.9480 ho        1 MOL      0.399501
    182 H87        -0.6410   -3.8860    3.8910 ho        1 MOL      0.399501
    183 O26        -3.7540   -1.1730   -0.0330 oh        1 MOL     -0.814125
    184 H88        -4.3120   -1.3770    0.7110 ho        1 MOL      0.399501
    185 H89        -4.1110   -0.3700   -0.3960 ho        1 MOL      0.399501
    186 O27         0.2600   -4.3580    0.5580 oh        1 MOL     -0.814125
    187 H90        -0.3960   -5.0200    0.7660 ho        1 MOL      0.399501
    188 H91         1.0180   -4.6060    1.0890 ho        1 MOL      0.399501
@<TRIPOS>BOND
     1    1    2 1   
     2    1    4 1   
     3    1    5 1   
     4    1    6 1   
     5    2    3 2   
     6    2    7 1   
     7    7    8 1   
     8    7   15 1   
     9    8    9 1   
    10    8   11 1   
    11    8   16 1   
    12    9   10 2   
    13    9   19 1   
    14   11   12 1   
    15   11   17 1   
    16   11   18 1   
    17   12   13 1   
    18   12   14 1   
    19   19   20 1   
    20   19   28 1   
    21   20   21 1   
    22   20   23 1   
    23   20   29 1   
    24   21   22 2   
    25   21   41 1   
    26   23   24 1   
    27   23   30 1   
    28   23   31 1   
    29   24   25 1   
    30   24   32 1   
    31   24   33 1   
    32   25   26 1   
    33   25   34 1   
    34   25   35 1   
    35   26   27 1   
    36   26   36 1   
    37   26   37 1   
    38   27   38 1   
    39   27   39 1   
    40   27   40 1   
    41   41   42 1   
    42   41   49 1   
    43   42   43 1   
    44   42   45 1   
    45   42   50 1   
    46   43   44 2   
    47   43   53 1   
    48   45   46 1   
    49   45   51 1   
    50   45   52 1   
    51   46   47 1   
    52   46   48 1   
    53   53   54 1   
    54   53   57 1   
    55   54   55 1   
    56   54   58 1   
    57   54   59 1   
    58   55   56 2   
    59   55   60 1   
    60   60   61 1   
    61   60   68 1   
    62   61   62 1   
    63   61   64 1   
    64   61   69 1   
    65   62   63 2   
    66   62   74 1   
    67   64   65 1   
    68   64   70 1   
    69   64   71 1   
    70   65   66 1   
    71   65   67 2   
    72   66   72 1   
    73   66   73 1   
    74   74   75 1   
    75   74   78 1   
    76   75   76 1   
    77   75   79 1   
    78   75   80 1   
    79   76   77 2   
    80   76   81 1   
    81   81   82 1   
    82   81   93 1   
    83   82   83 1   
    84   82   85 1   
    85   82   94 1   
    86   83   84 2   
    87   83  102 1   
    88   85   86 1   
    89   85   95 1   
    90   85   96 1   
    91   86   87 ar  
    92   86   88 ar  
    93   87   89 ar  
    94   87   97 1   
    95   88   90 ar  
    96   88   98 1   
    97   89   91 ar  
    98   89   99 1   
    99   90   91 ar  
   100   90  100 1   
   101   91   92 1   
   102   92  101 1   
   103  102  103 1   
   104  102  110 1   
   105  103  104 1   
   106  103  106 1   
   107  103  111 1   
   108  104  105 2   
   109  104  121 1   
   110  106  107 1   
   111  106  108 1   
   112  106  112 1   
   113  107  109 1   
   114  107  113 1   
   115  107  114 1   
   116  108  115 1   
   117  108  116 1   
   118  108  117 1   
   119  109  118 1   
   120  109  119 1   
   121  109  120 1   
   122  121  122 1   
   123  121  127 1   
   124  122  123 1   
   125  122  125 1   
   126  122  128 1   
   127  123  124 2   
   128  123  132 1   
   129  125  126 1   
   130  125  129 1   
   131  125  130 1   
   132  126  131 1   
   133  132  133 1   
   134  132  137 1   
   135  133  134 1   
   136  133  136 1   
   137  133  138 1   
   138  134  135 2   
   139  134  142 1   
   140  136  139 1   
   141  136  140 1   
   142  136  141 1   
   143  142  143 1   
   144  142  147 1   
   145  143  144 1   
   146  143  146 1   
   147  143  148 1   
   148  144  145 2   
   149  144  152 1   
   150  146  149 1   
   151  146  150 1   
   152  146  151 1   
   153  152  153 1   
   154  152  161 1   
   155  153  154 1   
   156  153  156 1   
   157  153  162 1   
   158  154  155 2   
   159  154  167 1   
   160  156  157 1   
   161  156  163 1   
   162  156  164 1   
   163  157  158 1   
   164  157  165 1   
   165  157  166 1   
   166  158  159 1   
   167  158  160 1   
   168  167  168 1   
   169  167  172 1   
   170  168  169 1   
   171  168  170 1   
   172  168  171 1   
   173  174  175 1   
   174  174  176 1   
   175  177  178 1   
   176  177  179 1   
   177  180  181 1   
   178  180  182 1   
   179  183  184 1   
   180  183  185 1   
   181  186  187 1   
   182  186  188 1   
@<TRIPOS>SUBSTRUCTURE
     1 MOL         1 TEMP              0 ****  ****    0 ROOT
