@<TRIPOS>MOLECULE
MOL
  192   187     1     0     0
SMALL
resp


@<TRIPOS>ATOM
      1 C1          8.9750    0.5820    2.3080 c3        1 MOL     -0.627864
      2 C2          8.0460    0.4780    1.1030 c         1 MOL      0.709210
      3 O1          7.1700    1.3510    0.9310 o         1 MOL     -0.544364
      4 H1          8.8290   -0.2830    2.9540 hc        1 MOL      0.166579
      5 H2         10.0110    0.6090    1.9680 hc        1 MOL      0.166579
      6 H3          8.7500    1.4920    2.8640 hc        1 MOL      0.166579
      7 N1          8.1330   -0.5380    0.1890 n         1 MOL     -0.621590
      8 C3          7.4150   -0.6540   -1.0720 c3        1 MOL      0.089151
      9 C4          6.7940   -2.0470   -1.2790 c         1 MOL      0.538604
     10 O2          6.7370   -2.6300   -2.3620 o         1 MOL     -0.500275
     11 C5          8.3070   -0.3760   -2.3030 c3        1 MOL     -0.159800
     12 C6          9.1420    0.9900   -2.1680 c         1 MOL      0.710553
     13 O3          8.5490    2.0290   -1.7770 o         1 MOL     -0.628073
     14 O4         10.2640    1.0170   -2.7050 o         1 MOL     -0.628073
     15 H4          9.0020   -1.0600    0.1840 hn        1 MOL      0.294922
     16 H5          6.6550    0.1150   -1.0270 h1        1 MOL      0.110919
     17 H6          7.7180   -0.2660   -3.2110 hc        1 MOL      0.039547
     18 H7          9.0120   -1.2020   -2.4140 hc        1 MOL      0.039547
     19 N2          6.4360   -2.6980   -0.1670 n         1 MOL     -0.410069
     20 C7          5.8940   -4.0950    0.0280 c3        1 MOL      0.062371
     21 C8          4.4450   -4.2480   -0.2940 c         1 MOL      0.563418
     22 O5          4.0700   -5.1940   -0.9360 o         1 MOL     -0.554352
     23 C9          6.1940   -4.6440    1.4340 c3        1 MOL     -0.130533
     24 C10         7.6430   -4.5950    1.7930 c3        1 MOL     -0.060063
     25 C11         7.8990   -5.3040    3.1250 c3        1 MOL      0.126940
     26 C12         9.2210   -4.7700    3.7490 c3        1 MOL      0.079110
     27 N3          9.3140   -5.2630    5.1530 n4        1 MOL     -0.267051
     28 H8          6.4490   -2.1730    0.6850 hn        1 MOL      0.212682
     29 H9          6.4230   -4.7250   -0.6790 h1        1 MOL      0.088624
     30 H10         5.8920   -5.6930    1.3880 hc        1 MOL      0.046826
     31 H11         5.5550   -4.0570    2.0930 hc        1 MOL      0.046826
     32 H12         8.0230   -3.5810    1.8710 hc        1 MOL      0.036751
     33 H13         8.1980   -5.1640    1.0520 hc        1 MOL      0.036751
     34 H14         7.9820   -6.3760    3.0190 hc        1 MOL     -0.007854
     35 H15         7.0950   -5.0180    3.7970 hc        1 MOL     -0.007854
     36 H16         9.1850   -3.6830    3.6710 hx        1 MOL      0.041657
     37 H17        10.0880   -5.0860    3.1650 hx        1 MOL      0.041657
     38 H18         9.3620   -6.2690    5.1270 hn        1 MOL      0.245738
     39 H19        10.2050   -4.9670    5.5330 hn        1 MOL      0.245738
     40 H20         8.5530   -5.0000    5.7680 hn        1 MOL      0.245738
     41 N4          3.4850   -3.4100    0.0910 n         1 MOL     -0.442395
     42 C13         3.6290   -2.1570    0.8570 c3        1 MOL      0.115712
     43 C14         3.7510   -0.9540   -0.0460 c         1 MOL      0.131664
     44 O6          3.6080   -0.9180   -1.2940 o         1 MOL     -0.348504
     45 C15         2.4720   -2.0630    1.8290 c3        1 MOL     -0.248747
     46 C16         0.9950   -2.1560    1.2710 c         1 MOL      0.776704
     47 O7          0.8260   -1.8040    0.0560 o         1 MOL     -0.681664
     48 O8          0.0760   -2.5740    2.0250 o         1 MOL     -0.681664
     49 H21         2.5590   -3.6550   -0.2420 hn        1 MOL      0.326388
     50 H22         4.4630   -2.2170    1.5490 h1        1 MOL      0.107211
     51 H23         2.5840   -1.1380    2.3800 hc        1 MOL      0.035962
     52 H24         2.6020   -2.9790    2.4080 hc        1 MOL      0.035962
     53 N5          4.1290    0.1350    0.5920 n         1 MOL     -0.350020
     54 C17         4.3630    1.4880   -0.0040 c3        1 MOL      0.085817
     55 C18         3.1580    2.0720   -0.7740 c         1 MOL      0.489849
     56 O9          2.0340    1.6630   -0.6500 o         1 MOL     -0.480757
     57 H25         4.2620    0.0040    1.5800 hn        1 MOL      0.257402
     58 H26         5.1340    1.4420   -0.7730 h1        1 MOL      0.081348
     59 H27         4.6080    2.2910    0.6920 h1        1 MOL      0.081348
     60 N6          3.4170    3.1400   -1.5750 n         1 MOL     -0.465180
     61 C19         2.4320    4.0830   -2.1730 c3        1 MOL      0.270614
     62 C20         2.9770    5.5570   -2.3210 c         1 MOL      0.363904
     63 O10         4.1970    5.7730   -2.1870 o         1 MOL     -0.495036
     64 C21         2.1040    3.5810   -3.6010 c3        1 MOL     -0.320600
     65 C22         1.5900    2.1930   -3.6320 c         1 MOL      0.710327
     66 O11         2.4000    1.3280   -3.9980 o         1 MOL     -0.690702
     67 O12         0.4340    1.9190   -3.2250 o         1 MOL     -0.690702
     68 H28         4.3720    3.4960   -1.6250 hn        1 MOL      0.301744
     69 H29         1.5100    4.1830   -1.6030 h1        1 MOL      0.043414
     70 H30         3.0290    3.7250   -4.1470 hc        1 MOL      0.085694
     71 H31         1.3620    4.2710   -4.0130 hc        1 MOL      0.085694
     72 N7          2.1300    6.6100   -2.4890 n         1 MOL     -0.387143
     73 C23         0.6580    6.6360   -2.5030 c3        1 MOL     -0.021716
     74 C24         0.0420    6.3570   -1.0880 c         1 MOL      0.511481
     75 O13         0.6410    6.4560   -0.0180 o         1 MOL     -0.474938
     76 H32         2.6430    7.4700   -2.6000 hn        1 MOL      0.303767
     77 H33         0.2670    5.9130   -3.2230 h1        1 MOL      0.063265
     78 H34         0.3800    7.6060   -2.9200 h1        1 MOL      0.063265
     79 N8         -1.2190    5.9100   -1.0710 n         1 MOL     -0.543833
     80 C25        -1.9410    5.2700    0.0730 c3        1 MOL      0.024257
     81 C26        -1.1910    4.0080    0.5170 c         1 MOL      0.855187
     82 O14        -0.7990    3.1670   -0.3040 o         1 MOL     -0.667919
     83 C27        -3.4060    5.0440   -0.3590 c3        1 MOL      0.113138
     84 C28        -4.3560    4.5090    0.7070 c3        1 MOL     -0.208662
     85 O15        -3.3510    4.1310   -1.4810 oh        1 MOL     -0.591038
     86 H35        -1.6980    5.7580   -1.9520 hn        1 MOL      0.323457
     87 H36        -1.9470    5.9600    0.9130 h1        1 MOL      0.068697
     88 H37        -3.7940    5.9760   -0.7710 h1        1 MOL      0.069437
     89 H38        -4.2800    3.9330   -1.6510 ho        1 MOL      0.403909
     90 H39        -5.3740    4.4980    0.3080 hc        1 MOL      0.077536
     91 H40        -3.8860    3.6320    1.1370 hc        1 MOL      0.077536
     92 H41        -4.4390    5.2830    1.4710 hc        1 MOL      0.077536
     93 N9         -1.0010    3.7870    1.8430 n         1 MOL     -0.631870
     94 C29        -0.4490    2.6110    2.5950 c3        1 MOL     -0.020316
     95 C30        -1.2000    1.3360    2.2320 c         1 MOL      0.490057
     96 O16        -0.7660    0.6940    1.2740 o         1 MOL     -0.694230
     97 C31         1.0850    2.6550    2.4470 c3        1 MOL      0.353983
     98 C32         1.6610    4.0430    2.9630 c3        1 MOL     -0.089837
     99 C33         1.7950    1.5640    3.1970 c3        1 MOL     -0.493033
    100 C34         3.1100    4.3410    2.7100 c3        1 MOL     -0.223273
    101 H42        -1.2660    4.5840    2.4100 hn        1 MOL      0.264675
    102 H43        -0.6750    2.8380    3.6450 h1        1 MOL      0.033781
    103 H44         1.2590    2.6090    1.3670 hc        1 MOL      0.026968
    104 H45         1.4020    4.0960    4.0210 hc        1 MOL      0.020319
    105 H46         1.1880    4.8390    2.3900 hc        1 MOL      0.020319
    106 H47         2.8530    1.5610    2.9570 hc        1 MOL      0.115431
    107 H48         1.5600    1.8270    4.2280 hc        1 MOL      0.115431
    108 H49         1.3230    0.5970    2.9900 hc        1 MOL      0.115431
    109 H50         3.7340    3.8460    3.4580 hc        1 MOL      0.068386
    110 H51         3.2820    3.9920    1.6880 hc        1 MOL      0.068386
    111 H52         3.2090    5.4220    2.6530 hc        1 MOL      0.068386
    112 N10        -2.2140    1.1000    2.9890 n         1 MOL     -0.160045
    113 C35        -2.9010   -0.1650    3.0500 c3        1 MOL     -0.265720
    114 C36        -4.4400   -0.1940    3.0150 c         1 MOL      0.620510
    115 O17        -5.0750   -1.2670    3.0500 o         1 MOL     -0.575169
    116 C37        -2.3010   -1.1570    4.0760 c3        1 MOL      0.334039
    117 C38        -2.7710   -0.9020    5.5330 c3        1 MOL     -0.263148
    118 O18        -0.8740   -1.0700    4.0750 oh        1 MOL     -0.618190
    119 H53        -2.3640    1.7460    3.7540 hn        1 MOL      0.257022
    120 H54        -2.7100   -0.6490    2.0920 h1        1 MOL      0.173408
    121 H55        -2.5050   -2.1940    3.7920 h1        1 MOL      0.050949
    122 H56        -0.5300   -1.5930    3.3510 ho        1 MOL      0.397030
    123 H57        -2.3290   -1.6310    6.2040 hc        1 MOL      0.061159
    124 H58        -2.5970    0.1080    5.9160 hc        1 MOL      0.061159
    125 H59        -3.8580   -0.9840    5.5840 hc        1 MOL      0.061159
    126 N11        -5.0700    0.9650    2.8050 n         1 MOL     -0.312431
    127 C39        -6.5140    1.0490    2.5190 c3        1 MOL     -0.217919
    128 C40        -6.8950    0.4100    1.1260 c         1 MOL      0.600076
    129 O19        -7.0350    1.0840    0.0540 o         1 MOL     -0.519276
    130 C41        -6.9120    2.5270    2.4470 c3        1 MOL      0.549366
    131 C42        -8.4330    2.7430    2.5690 c3        1 MOL     -0.473090
    132 O20        -6.3430    3.3230    3.4400 oh        1 MOL     -0.642692
    133 H60        -4.5570    1.8310    2.9090 hn        1 MOL      0.189512
    134 H61        -7.0620    0.6410    3.3620 h1        1 MOL      0.087016
    135 H62        -6.5270    2.9070    1.5080 h1        1 MOL     -0.041808
    136 H63        -6.8380    3.1470    4.2480 ho        1 MOL      0.393588
    137 H64        -8.7340    2.4790    3.5810 hc        1 MOL      0.118495
    138 H65        -8.7650    3.7570    2.3400 hc        1 MOL      0.118495
    139 H66        -8.8630    2.0320    1.8640 hc        1 MOL      0.118495
    140 N12        -6.9370   -0.9560    1.1460 n         1 MOL     -0.589809
    141 C43        -6.8260   -1.8550   -0.0200 c3        1 MOL      0.273523
    142 C44        -5.4870   -1.7600   -0.7740 c         1 MOL      0.553506
    143 O21        -4.8100   -0.6990   -0.6220 o         1 MOL     -0.497578
    144 C45        -8.1560   -2.0090   -0.7690 c3        1 MOL     -0.551698
    145 C46        -9.4220   -2.1220    0.1120 c3        1 MOL      0.241413
    146 C47       -10.7300   -2.2290   -0.7460 c3        1 MOL      0.253592
    147 C48       -11.9410   -2.0250    0.1770 c3        1 MOL     -0.080965
    148 N13       -13.0110   -2.9020   -0.2510 n4        1 MOL     -0.085397
    149 H67        -6.7110   -1.4140    2.0160 hn        1 MOL      0.328321
    150 H68        -6.7710   -2.8120    0.4970 h1        1 MOL      0.043205
    151 H69        -8.1830   -2.8890   -1.4090 hc        1 MOL      0.142384
    152 H70        -8.2440   -1.1700   -1.4540 hc        1 MOL      0.142384
    153 H71        -9.4470   -1.2760    0.7920 hc        1 MOL     -0.057446
    154 H72        -9.5630   -3.0280    0.7140 hc        1 MOL     -0.057446
    155 H73       -10.8170   -3.2170   -1.1990 hc        1 MOL     -0.037406
    156 H74       -10.7200   -1.5090   -1.5660 hc        1 MOL     -0.037406
    157 H75       -12.2690   -0.9870    0.1480 hx        1 MOL      0.075993
    158 H76       -11.6660   -2.3480    1.1810 hx        1 MOL      0.075993
    159 H77       -12.9790   -3.8880   -0.0420 hn        1 MOL      0.183921
    160 H78       -13.8030   -2.6610    0.3320 hn        1 MOL      0.183921
    161 H79       -13.1920   -2.8960   -1.2490 hn        1 MOL      0.183921
    162 N14        -5.0780   -2.8200   -1.4470 n         1 MOL     -0.577676
    163 C49        -3.8050   -2.9820   -2.1200 c3        1 MOL      0.307389
    164 C50        -2.6210   -2.6990   -1.2560 c         1 MOL      0.399894
    165 O22        -1.8030   -1.8330   -1.5280 o         1 MOL     -0.551130
    166 C51        -3.7830   -4.4320   -2.8280 c3        1 MOL      0.079002
    167 C52        -4.5580   -4.2990   -4.1340 c3        1 MOL     -0.286201
    168 C53        -4.6050   -5.6630   -4.8850 c         1 MOL      0.713444
    169 O23        -3.6470   -6.0560   -5.5500 o         1 MOL     -0.638406
    170 O24        -5.5470   -6.4380   -4.6430 o         1 MOL     -0.638406
    171 H80        -5.7070   -3.6160   -1.3850 hn        1 MOL      0.304619
    172 H81        -3.6980   -2.2540   -2.9270 h1        1 MOL      0.079376
    173 H82        -4.3220   -5.1550   -2.2150 hc        1 MOL      0.033418
    174 H83        -2.7420   -4.6980   -2.9920 hc        1 MOL      0.033418
    175 H84        -4.1080   -3.5540   -4.7920 hc        1 MOL      0.029318
    176 H85        -5.5850   -3.9460   -4.0020 hc        1 MOL      0.029318
    177 N15        -2.2550   -3.4750   -0.2130 n         1 MOL     -0.414761
    178 C54        -3.0560   -4.5200    0.3830 c3        1 MOL      0.083721
    179 H86        -3.8540   -4.0730    0.9760 h1        1 MOL      0.001578
    180 H87        -3.4900   -5.1390   -0.4020 h1        1 MOL      0.001578
    181 H88        -2.4280   -5.1370    1.0270 h1        1 MOL      0.001578
    182 H89        -1.4570   -3.2000    0.3400 hn        1 MOL      0.334107
    183 Ca1        -0.1900    0.2070   -1.3400 Ca        1 MOL      1.804275
    184 O25        -1.1790   -0.2760   -3.9560 oh        1 MOL     -0.881812
    185 H90        -1.9840   -0.0470   -4.4220 ho        1 MOL      0.414143
    186 H91        -0.4810    0.0730   -4.5090 ho        1 MOL      0.414143
    187 O26         1.5940   -0.9790   -2.8850 oh        1 MOL     -0.881812
    188 H92         2.0110   -0.5600   -3.6380 ho        1 MOL      0.414143
    189 H93         2.3190   -1.1900   -2.3000 ho        1 MOL      0.414143
    190 O27        -2.7750    0.8290   -1.2660 oh        1 MOL     -0.881812
    191 H94        -3.5370    0.3070   -1.0190 ho        1 MOL      0.414143
    192 H95        -2.9250    1.6730   -0.8420 ho        1 MOL      0.414143
@<TRIPOS>BOND
     1    1    2 1   
     2    1    4 1   
     3    1    5 1   
     4    1    6 1   
     5    2    3 2   
     6    2    7 1   
     7    7    8 1   
     8    7   15 1   
     9    8    9 1   
    10    8   11 1   
    11    8   16 1   
    12    9   10 2   
    13    9   19 1   
    14   11   12 1   
    15   11   17 1   
    16   11   18 1   
    17   12   13 1   
    18   12   14 1   
    19   19   20 1   
    20   19   28 1   
    21   20   21 1   
    22   20   23 1   
    23   20   29 1   
    24   21   22 2   
    25   21   41 1   
    26   23   24 1   
    27   23   30 1   
    28   23   31 1   
    29   24   25 1   
    30   24   32 1   
    31   24   33 1   
    32   25   26 1   
    33   25   34 1   
    34   25   35 1   
    35   26   27 1   
    36   26   36 1   
    37   26   37 1   
    38   27   38 1   
    39   27   39 1   
    40   27   40 1   
    41   41   42 1   
    42   41   49 1   
    43   42   43 1   
    44   42   45 1   
    45   42   50 1   
    46   43   44 2   
    47   43   53 1   
    48   45   46 1   
    49   45   51 1   
    50   45   52 1   
    51   46   47 1   
    52   46   48 1   
    53   53   54 1   
    54   53   57 1   
    55   54   55 1   
    56   54   58 1   
    57   54   59 1   
    58   55   56 2   
    59   55   60 1   
    60   60   61 1   
    61   60   68 1   
    62   61   62 1   
    63   61   64 1   
    64   61   69 1   
    65   62   63 2   
    66   62   72 1   
    67   64   65 1   
    68   64   70 1   
    69   64   71 1   
    70   65   66 1   
    71   65   67 1   
    72   72   73 1   
    73   72   76 1   
    74   73   74 1   
    75   73   77 1   
    76   73   78 1   
    77   74   75 2   
    78   74   79 1   
    79   79   80 1   
    80   79   86 1   
    81   80   81 1   
    82   80   83 1   
    83   80   87 1   
    84   81   82 2   
    85   81   93 1   
    86   83   84 1   
    87   83   85 1   
    88   83   88 1   
    89   84   90 1   
    90   84   91 1   
    91   84   92 1   
    92   85   89 1   
    93   93   94 1   
    94   93  101 1   
    95   94   95 1   
    96   94   97 1   
    97   94  102 1   
    98   95   96 2   
    99   95  112 1   
   100   97   98 1   
   101   97   99 1   
   102   97  103 1   
   103   98  100 1   
   104   98  104 1   
   105   98  105 1   
   106   99  106 1   
   107   99  107 1   
   108   99  108 1   
   109  100  109 1   
   110  100  110 1   
   111  100  111 1   
   112  112  113 1   
   113  112  119 1   
   114  113  114 1   
   115  113  116 1   
   116  113  120 1   
   117  114  115 2   
   118  114  126 1   
   119  116  117 1   
   120  116  118 1   
   121  116  121 1   
   122  117  123 1   
   123  117  124 1   
   124  117  125 1   
   125  118  122 1   
   126  126  127 1   
   127  126  133 1   
   128  127  128 1   
   129  127  130 1   
   130  127  134 1   
   131  128  129 2   
   132  128  140 1   
   133  130  131 1   
   134  130  132 1   
   135  130  135 1   
   136  131  137 1   
   137  131  138 1   
   138  131  139 1   
   139  132  136 1   
   140  140  141 1   
   141  140  149 1   
   142  141  142 1   
   143  141  144 1   
   144  141  150 1   
   145  142  143 2   
   146  142  162 1   
   147  144  145 1   
   148  144  151 1   
   149  144  152 1   
   150  145  146 1   
   151  145  153 1   
   152  145  154 1   
   153  146  147 1   
   154  146  155 1   
   155  146  156 1   
   156  147  148 1   
   157  147  157 1   
   158  147  158 1   
   159  148  159 1   
   160  148  160 1   
   161  148  161 1   
   162  162  163 1   
   163  162  171 1   
   164  163  164 1   
   165  163  166 1   
   166  163  172 1   
   167  164  165 2   
   168  164  177 1   
   169  166  167 1   
   170  166  173 1   
   171  166  174 1   
   172  167  168 1   
   173  167  175 1   
   174  167  176 1   
   175  168  169 1   
   176  168  170 1   
   177  177  178 1   
   178  177  182 1   
   179  178  179 1   
   180  178  180 1   
   181  178  181 1   
   182  184  185 1   
   183  184  186 1   
   184  187  188 1   
   185  187  189 1   
   186  190  191 1   
   187  190  192 1   
@<TRIPOS>SUBSTRUCTURE
     1 MOL         1 TEMP              0 ****  ****    0 ROOT
