@<TRIPOS>MOLECULE
MOL
  182   178     1     0     0
SMALL
resp


@<TRIPOS>ATOM
      1 C1         -0.0100   -3.2050    6.1920 c3        1 MOL     -0.267899
      2 C2          0.1720   -3.2890    4.6960 c         1 MOL      0.697923
      3 O1         -0.8210   -3.4060    3.9460 o         1 MOL     -0.560583
      4 H1         -1.0150   -3.5330    6.4540 hc        1 MOL      0.075225
      5 H2          0.7210   -3.8470    6.6840 hc        1 MOL      0.075225
      6 H3          0.1320   -2.1740    6.5180 hc        1 MOL      0.075225
      7 N1          1.4410   -3.1030    4.2880 n         1 MOL     -0.550669
      8 C3          1.8980   -3.0310    2.9080 c3        1 MOL      0.098531
      9 C4          1.8010   -4.3690    2.0970 c         1 MOL      0.517343
     10 O2          2.0790   -5.4640    2.5900 o         1 MOL     -0.518209
     11 C5          3.3110   -2.3930    2.9480 c3        1 MOL     -0.084248
     12 C6          3.5210   -1.5280    1.6440 c         1 MOL      0.640514
     13 O3          3.9650   -0.3870    1.6810 o         1 MOL     -0.675097
     14 O4          3.2800   -2.0500    0.5610 o         1 MOL     -0.675097
     15 H4          2.1530   -3.1550    5.0070 hn        1 MOL      0.331771
     16 H5          1.2340   -2.2740    2.4770 h1        1 MOL     -0.264906
     17 H6          4.0550   -3.1910    3.0490 hc        1 MOL      0.050544
     18 H7          3.3930   -1.8180    3.8690 hc        1 MOL      0.050544
     19 N2          1.6300   -4.1970    0.7280 n         1 MOL     -0.262198
     20 C7          1.6080   -5.3160   -0.2890 c3        1 MOL      0.119382
     21 C8          2.8740   -5.3970   -1.2220 c         1 MOL      0.469208
     22 O5          2.9520   -6.3460   -2.0450 o         1 MOL     -0.544135
     23 C9          0.3070   -5.2580   -1.1040 c3        1 MOL      0.036717
     24 C10        -0.1600   -6.6410   -1.6100 c3        1 MOL      0.008243
     25 C11        -1.4790   -6.6400   -2.3310 c3        1 MOL      0.093894
     26 C12        -2.1680   -8.0140   -2.4240 c3        1 MOL     -0.069652
     27 N3         -3.4080   -7.8110   -3.1000 n4        1 MOL     -0.047811
     28 H8          1.5190   -3.2560    0.3740 hn        1 MOL      0.204369
     29 H9          1.6420   -6.2510    0.2590 h1        1 MOL      0.026984
     30 H10         0.6230   -4.6870   -1.9850 hc        1 MOL     -0.018209
     31 H11        -0.4780   -4.7530   -0.5470 hc        1 MOL     -0.018209
     32 H12        -0.3030   -7.4090   -0.8490 hc        1 MOL      0.009524
     33 H13         0.5660   -7.0190   -2.3390 hc        1 MOL      0.009524
     34 H14        -1.4360   -6.0750   -3.2620 hc        1 MOL     -0.001621
     35 H15        -2.1000   -6.0990   -1.6210 hc        1 MOL     -0.001621
     36 H16        -2.4040   -8.3470   -1.4110 hx        1 MOL      0.083325
     37 H17        -1.5250   -8.6980   -2.9800 hx        1 MOL      0.083325
     38 H18        -3.7560   -6.8610   -3.1000 hn        1 MOL      0.201993
     39 H19        -3.2990   -8.1610   -4.0460 hn        1 MOL      0.201993
     40 H20        -4.0800   -8.4750   -2.7300 hn        1 MOL      0.201993
     41 N4          3.7710   -4.4110   -1.1410 n         1 MOL     -0.300252
     42 C13         5.0200   -4.2810   -1.8650 c3        1 MOL      0.168057
     43 C14         6.2070   -3.9020   -1.0690 c         1 MOL      0.467648
     44 O6          7.3330   -4.1420   -1.5050 o         1 MOL     -0.552717
     45 C15         4.9470   -3.2630   -3.0250 c3        1 MOL     -0.433432
     46 C16         4.3780   -1.9210   -2.6500 c         1 MOL      0.915347
     47 O7          3.2550   -1.5670   -3.1750 o         1 MOL     -0.797033
     48 O8          4.9210   -1.3430   -1.7580 o         1 MOL     -0.797033
     49 H21         3.5080   -3.6140   -0.5740 hn        1 MOL      0.050374
     50 H22         5.2290   -5.2820   -2.2530 h1        1 MOL      0.082347
     51 H23         4.3160   -3.7830   -3.7490 hc        1 MOL      0.120666
     52 H24         5.9120   -3.1620   -3.5340 hc        1 MOL      0.120666
     53 N5          6.0620   -3.3560    0.1520 n         1 MOL     -0.340474
     54 C17         7.1210   -2.9810    1.1020 c3        1 MOL     -0.139937
     55 C18         7.4610   -1.4670    1.0160 c         1 MOL      0.388369
     56 O9          8.0680   -0.9930    1.9890 o         1 MOL     -0.539715
     57 H25         5.1660   -2.9260    0.3310 hn        1 MOL      0.219819
     58 H26         7.9710   -3.6530    1.1380 h1        1 MOL      0.131946
     59 H27         6.6820   -3.1550    2.0850 h1        1 MOL      0.131946
     60 N6          7.0660   -0.7450   -0.0280 n         1 MOL     -0.047320
     61 C19         7.5670    0.5710   -0.3810 c3        1 MOL      0.034856
     62 C20         6.4760    1.6690   -0.4480 c         1 MOL      0.444686
     63 O10         5.3330    1.3040   -0.6050 o         1 MOL     -0.460667
     64 C21         8.2790    0.3790   -1.6670 c3        1 MOL     -0.265863
     65 C22         8.7430    1.6470   -2.3990 c         1 MOL      0.664933
     66 N7          9.7520    2.2510   -1.8680 n         1 MOL     -0.763929
     67 O11         8.1430    2.0950   -3.3740 o         1 MOL     -0.562860
     68 H28         6.4860   -1.2370   -0.6970 hn        1 MOL      0.258128
     69 H29         8.3270    0.9090    0.3180 h1        1 MOL      0.019560
     70 H30         7.5150   -0.0720   -2.3130 hc        1 MOL      0.079398
     71 H31         8.9550   -0.4730   -1.5490 hc        1 MOL      0.079398
     72 H32        10.2440    1.7400   -1.1400 hn        1 MOL      0.367838
     73 H33         9.9660    3.2070   -2.1300 hn        1 MOL      0.367838
     74 N8          6.8320    2.9650   -0.4100 n         1 MOL     -0.358669
     75 C23         5.9830    4.0780   -0.6790 c3        1 MOL     -0.045876
     76 C24         4.8600    4.3740    0.3410 c         1 MOL      0.628640
     77 O12         5.0900    4.4320    1.5520 o         1 MOL     -0.514609
     78 H34         7.8140    3.1900   -0.3640 hn        1 MOL      0.278484
     79 H35         5.3930    3.7880   -1.5510 h1        1 MOL      0.053772
     80 H36         6.5430    4.9850   -0.9360 h1        1 MOL      0.053772
     81 N9          3.6510    4.5550   -0.1720 n         1 MOL     -0.717186
     82 C25         2.4160    4.5880    0.6150 c3        1 MOL      0.388226
     83 C26         1.9120    3.1450    1.0990 c         1 MOL      0.526073
     84 O13         2.5820    2.1340    0.7210 o         1 MOL     -0.508359
     85 C27         1.2820    5.3460   -0.2090 c3        1 MOL     -0.330137
     86 C28         1.6360    6.7960   -0.4450 ca        1 MOL      0.049427
     87 C29         1.8370    7.6970    0.6320 ca        1 MOL     -0.118792
     88 C30         1.4380    7.2920   -1.7340 ca        1 MOL     -0.118792
     89 C31         1.9340    9.0680    0.4400 ca        1 MOL     -0.251378
     90 C32         1.5900    8.7060   -1.9970 ca        1 MOL     -0.251378
     91 C33         1.9630    9.5590   -0.8860 ca        1 MOL      0.297831
     92 O14         2.1190   10.8870   -1.1630 oh        1 MOL     -0.452219
     93 H37         3.6020    4.7100   -1.1650 hn        1 MOL      0.320883
     94 H38         2.6960    5.1250    1.5150 h1        1 MOL      0.055091
     95 H39         0.3930    5.4920    0.3880 hc        1 MOL      0.104278
     96 H40         1.1110    4.8030   -1.1430 hc        1 MOL      0.104278
     97 H41         1.8350    7.2330    1.6060 ha        1 MOL      0.113395
     98 H42         1.1000    6.7000   -2.5830 ha        1 MOL      0.113395
     99 H43         2.1780    9.7170    1.2610 ha        1 MOL      0.164303
    100 H44         1.3640    8.9960   -3.0110 ha        1 MOL      0.164303
    101 H45         2.4010   11.0840   -2.0600 ho        1 MOL      0.353352
    102 N10         0.7460    3.0670    1.7560 n         1 MOL     -0.805391
    103 C34         0.1550    1.8500    2.3760 c3        1 MOL      0.450212
    104 C35        -0.1070    0.6820    1.3860 c         1 MOL      0.046741
    105 O15         0.7910    0.0700    0.8200 o         1 MOL     -0.118526
    106 C36         1.0540    1.3920    3.5350 c3        1 MOL      0.133113
    107 C37         0.4400    0.2260    4.3500 c3        1 MOL     -0.077424
    108 C38         1.3230    2.6520    4.5000 c3        1 MOL     -0.222355
    109 C39        -0.9630    0.5800    4.9830 c3        1 MOL     -0.242668
    110 H46         0.2820    3.9550    1.8830 hn        1 MOL      0.326630
    111 H47        -0.7380    2.2490    2.8430 h1        1 MOL      0.036792
    112 H48         2.0550    1.1820    3.1420 hc        1 MOL      0.020272
    113 H49         1.1300   -0.1590    5.1010 hc        1 MOL      0.077544
    114 H50         0.2580   -0.5490    3.6120 hc        1 MOL      0.077544
    115 H51         1.8620    2.3520    5.3890 hc        1 MOL      0.053726
    116 H52         1.9410    3.3860    3.9790 hc        1 MOL      0.053726
    117 H53         0.3680    3.1390    4.7240 hc        1 MOL      0.053726
    118 H54        -0.8690    1.4910    5.5780 hc        1 MOL      0.058388
    119 H55        -1.7840    0.7720    4.2900 hc        1 MOL      0.058388
    120 H56        -1.3540   -0.2690    5.5430 hc        1 MOL      0.058388
    121 N11        -1.3430    0.2750    1.2970 n         1 MOL     -0.045331
    122 C40        -1.8950   -0.7800    0.3570 c3        1 MOL     -0.407043
    123 C41        -3.2400   -0.4800   -0.2230 c         1 MOL      0.903551
    124 O16        -3.5570   -1.0530   -1.2840 o         1 MOL     -0.594708
    125 C42        -1.8600   -2.1780    1.0530 c3        1 MOL      0.442970
    126 O17        -2.6610   -2.2060    2.2440 oh        1 MOL     -0.650758
    127 H57        -2.0330    0.8460    1.7670 hn        1 MOL      0.093131
    128 H58        -1.2310   -0.8210   -0.5150 h1        1 MOL      0.074897
    129 H59        -0.8490   -2.4180    1.3830 h1        1 MOL     -0.022902
    130 H60        -2.1930   -2.9650    0.3780 h1        1 MOL     -0.022902
    131 H61        -2.2050   -2.6410    2.9750 ho        1 MOL      0.398756
    132 N12        -4.0830    0.3900    0.3950 n         1 MOL     -0.739339
    133 C43        -5.4960    0.5180    0.0410 c3        1 MOL      0.165822
    134 C44        -5.7850    1.2450   -1.3410 c         1 MOL      0.504077
    135 O18        -4.9240    2.0330   -1.7930 o         1 MOL     -0.546899
    136 C45        -6.3390    1.0250    1.1920 c3        1 MOL     -0.242393
    137 H62        -3.7550    0.9360    1.1830 hn        1 MOL      0.400493
    138 H63        -5.9360   -0.4600   -0.1690 h1        1 MOL      0.064007
    139 H64        -6.2580    2.1070    1.3100 hc        1 MOL      0.083819
    140 H65        -7.3950    0.7590    1.1870 hc        1 MOL      0.083819
    141 H66        -6.1130    0.7540    2.2210 hc        1 MOL      0.083819
    142 N13        -6.9140    0.9350   -1.9860 n         1 MOL     -0.575727
    143 C46        -8.1980    0.2370   -1.6680 c3        1 MOL      0.464983
    144 C47        -9.3410    1.1360   -2.1990 c         1 MOL      0.269029
    145 O19        -9.1430    1.8210   -3.2280 o         1 MOL     -0.502349
    146 C48        -8.0850   -1.1070   -2.3590 c3        1 MOL     -0.159556
    147 H67        -6.9150    1.3980   -2.8730 hn        1 MOL      0.318110
    148 H68        -8.3260    0.0740   -0.5950 h1        1 MOL     -0.028024
    149 H69        -7.7340   -1.0710   -3.3940 hc        1 MOL      0.044247
    150 H70        -7.3920   -1.7670   -1.8460 hc        1 MOL      0.044247
    151 H71        -9.0480   -1.6100   -2.2840 hc        1 MOL      0.044247
    152 N14       -10.5230    1.1050   -1.5770 n         1 MOL     -0.304575
    153 C49       -10.7500    0.6510   -0.2310 c3        1 MOL     -0.221007
    154 C50       -10.2060    1.5940    0.8490 c         1 MOL      0.296167
    155 O20        -9.8720    1.1820    1.9800 o         1 MOL     -0.456133
    156 C51       -12.2730    0.5470    0.0660 c3        1 MOL      0.176402
    157 C52       -13.0010   -0.2790   -1.0440 c3        1 MOL     -0.211767
    158 C53       -14.2140   -1.0440   -0.4900 c         1 MOL      0.691159
    159 O21       -14.0610   -2.2200   -0.1190 o         1 MOL     -0.655133
    160 O22       -15.3120   -0.4380   -0.3980 o         1 MOL     -0.655133
    161 H72       -11.1780    1.7460   -1.9910 hn        1 MOL      0.301949
    162 H73       -10.1900   -0.2720   -0.0930 h1        1 MOL      0.157188
    163 H74       -12.8460    1.4730    0.0920 hc        1 MOL      0.017511
    164 H75       -12.4350    0.0790    1.0340 hc        1 MOL      0.017511
    165 H76       -12.2450   -0.9740   -1.4050 hc        1 MOL      0.010561
    166 H77       -13.2440    0.4260   -1.8330 hc        1 MOL      0.010561
    167 N15       -10.1970    2.8770    0.4830 n         1 MOL     -0.175004
    168 C54        -9.5280    4.0010    1.0920 c3        1 MOL     -0.245220
    169 H78        -9.3110    4.7490    0.3290 h1        1 MOL      0.105742
    170 H79       -10.1710    4.4370    1.8550 h1        1 MOL      0.105742
    171 H80        -8.5970    3.6660    1.5480 h1        1 MOL      0.105742
    172 H81       -10.7700    3.1720   -0.2920 hn        1 MOL      0.251313
    173 Ca1         3.0160    0.1450   -0.9210 Ca        1 MOL      1.730542
    174 O23         0.9350    1.5300   -1.8480 oh        1 MOL     -0.883038
    175 H82         1.2290    2.2650   -2.3870 ho        1 MOL      0.432038
    176 H83        -0.0240    1.5650   -1.8910 ho        1 MOL      0.432038
    177 O24         3.5560    1.5350   -3.2410 oh        1 MOL     -0.883038
    178 H84         4.1790    2.2610   -3.2340 ho        1 MOL      0.432038
    179 H85         3.5540    1.2180   -4.1430 ho        1 MOL      0.432038
    180 O25         1.1540   -1.7130   -1.5790 oh        1 MOL     -0.883038
    181 H86         0.3030   -1.8740   -1.9920 ho        1 MOL      0.432038
    182 H87         1.7930   -1.8470   -2.2690 ho        1 MOL      0.432038
@<TRIPOS>BOND
     1    1    2 1   
     2    1    4 1   
     3    1    5 1   
     4    1    6 1   
     5    2    3 2   
     6    2    7 1   
     7    7    8 1   
     8    7   15 1   
     9    8    9 1   
    10    8   11 1   
    11    8   16 1   
    12    9   10 2   
    13    9   19 1   
    14   11   12 1   
    15   11   17 1   
    16   11   18 1   
    17   12   13 1   
    18   12   14 1   
    19   19   20 1   
    20   19   28 1   
    21   20   21 1   
    22   20   23 1   
    23   20   29 1   
    24   21   22 2   
    25   21   41 1   
    26   23   24 1   
    27   23   30 1   
    28   23   31 1   
    29   24   25 1   
    30   24   32 1   
    31   24   33 1   
    32   25   26 1   
    33   25   34 1   
    34   25   35 1   
    35   26   27 1   
    36   26   36 1   
    37   26   37 1   
    38   27   38 1   
    39   27   39 1   
    40   27   40 1   
    41   41   42 1   
    42   41   49 1   
    43   42   43 1   
    44   42   45 1   
    45   42   50 1   
    46   43   44 2   
    47   43   53 1   
    48   45   46 1   
    49   45   51 1   
    50   45   52 1   
    51   46   47 1   
    52   46   48 1   
    53   53   54 1   
    54   53   57 1   
    55   54   55 1   
    56   54   58 1   
    57   54   59 1   
    58   55   56 2   
    59   55   60 1   
    60   60   61 1   
    61   60   68 1   
    62   61   62 1   
    63   61   64 1   
    64   61   69 1   
    65   62   63 2   
    66   62   74 1   
    67   64   65 1   
    68   64   70 1   
    69   64   71 1   
    70   65   66 1   
    71   65   67 2   
    72   66   72 1   
    73   66   73 1   
    74   74   75 1   
    75   74   78 1   
    76   75   76 1   
    77   75   79 1   
    78   75   80 1   
    79   76   77 2   
    80   76   81 1   
    81   81   82 1   
    82   81   93 1   
    83   82   83 1   
    84   82   85 1   
    85   82   94 1   
    86   83   84 2   
    87   83  102 1   
    88   85   86 1   
    89   85   95 1   
    90   85   96 1   
    91   86   87 ar  
    92   86   88 ar  
    93   87   89 ar  
    94   87   97 1   
    95   88   90 ar  
    96   88   98 1   
    97   89   91 ar  
    98   89   99 1   
    99   90   91 ar  
   100   90  100 1   
   101   91   92 1   
   102   92  101 1   
   103  102  103 1   
   104  102  110 1   
   105  103  104 1   
   106  103  106 1   
   107  103  111 1   
   108  104  105 2   
   109  104  121 1   
   110  106  107 1   
   111  106  108 1   
   112  106  112 1   
   113  107  109 1   
   114  107  113 1   
   115  107  114 1   
   116  108  115 1   
   117  108  116 1   
   118  108  117 1   
   119  109  118 1   
   120  109  119 1   
   121  109  120 1   
   122  121  122 1   
   123  121  127 1   
   124  122  123 1   
   125  122  125 1   
   126  122  128 1   
   127  123  124 2   
   128  123  132 1   
   129  125  126 1   
   130  125  129 1   
   131  125  130 1   
   132  126  131 1   
   133  132  133 1   
   134  132  137 1   
   135  133  134 1   
   136  133  136 1   
   137  133  138 1   
   138  134  135 2   
   139  134  142 1   
   140  136  139 1   
   141  136  140 1   
   142  136  141 1   
   143  142  143 1   
   144  142  147 1   
   145  143  144 1   
   146  143  146 1   
   147  143  148 1   
   148  144  145 2   
   149  144  152 1   
   150  146  149 1   
   151  146  150 1   
   152  146  151 1   
   153  152  153 1   
   154  152  161 1   
   155  153  154 1   
   156  153  156 1   
   157  153  162 1   
   158  154  155 2   
   159  154  167 1   
   160  156  157 1   
   161  156  163 1   
   162  156  164 1   
   163  157  158 1   
   164  157  165 1   
   165  157  166 1   
   166  158  159 1   
   167  158  160 1   
   168  167  168 1   
   169  167  172 1   
   170  168  169 1   
   171  168  170 1   
   172  168  171 1   
   173  174  175 1   
   174  174  176 1   
   175  177  178 1   
   176  177  179 1   
   177  180  181 1   
   178  180  182 1   
@<TRIPOS>SUBSTRUCTURE
     1 MOL         1 TEMP              0 ****  ****    0 ROOT
