@<TRIPOS>MOLECULE
MOL
  192   187     1     0     0
SMALL
resp


@<TRIPOS>ATOM
      1 C1          5.9470   -5.0960   -3.5140 c3        1 MOL     -0.250770
      2 C2          5.4190   -3.8800   -2.6370 c         1 MOL      0.604973
      3 O1          4.8090   -4.1200   -1.5220 o         1 MOL     -0.573944
      4 H1          5.5280   -5.0280   -4.5180 hc        1 MOL      0.066684
      5 H2          7.0340   -5.0580   -3.5720 hc        1 MOL      0.066684
      6 H3          5.6380   -6.0360   -3.0560 hc        1 MOL      0.066684
      7 N1          5.6100   -2.6830   -3.1820 n         1 MOL     -0.409333
      8 C3          5.3210   -1.4360   -2.5200 c3        1 MOL     -0.015667
      9 C4          3.7770   -1.2550   -2.1390 c         1 MOL      0.030779
     10 O2          3.4660   -0.2340   -1.5210 o         1 MOL     -0.108461
     11 C5          6.0010   -0.3230   -3.3870 c3        1 MOL     -0.154969
     12 C6          5.9330   -0.3840   -4.9310 c         1 MOL      0.728075
     13 O3          5.0070    0.2620   -5.5180 o         1 MOL     -0.719904
     14 O4          6.7320   -1.1130   -5.4920 o         1 MOL     -0.719904
     15 H4          6.0580   -2.7190   -4.0760 hn        1 MOL      0.288811
     16 H5          5.8630   -1.4030   -1.5740 h1        1 MOL      0.138876
     17 H6          7.0540   -0.2300   -3.1140 hc        1 MOL      0.031446
     18 H7          5.6310    0.6470   -3.0900 hc        1 MOL      0.031446
     19 N2          2.8740   -2.1600   -2.6080 n         1 MOL     -0.022905
     20 C7          1.4030   -2.0100   -2.3460 c3        1 MOL     -0.013107
     21 C8          0.8480   -3.0750   -1.3190 c         1 MOL      0.363194
     22 O5          1.1030   -4.3050   -1.4880 o         1 MOL     -0.527446
     23 C9          0.5850   -2.0700   -3.6360 c3        1 MOL     -0.111569
     24 C10         1.0220   -0.9510   -4.6290 c3        1 MOL      0.106383
     25 C11        -0.0670   -0.6110   -5.6550 c3        1 MOL     -0.232176
     26 C12        -1.2840    0.0310   -4.9950 c3        1 MOL      0.098292
     27 N3         -2.4740    0.1970   -5.9080 n4        1 MOL     -0.400857
     28 H8          3.2110   -2.8400   -3.2670 hn        1 MOL      0.226332
     29 H9          1.2360   -1.0250   -1.9080 h1        1 MOL     -0.024542
     30 H10        -0.4740   -1.9390   -3.3960 hc        1 MOL      0.045083
     31 H11         0.7540   -3.0030   -4.1800 hc        1 MOL      0.045083
     32 H12         1.9490   -1.3630   -5.0400 hc        1 MOL      0.031663
     33 H13         1.3840   -0.0270   -4.1900 hc        1 MOL      0.031663
     34 H14        -0.3890   -1.4820   -6.2220 hc        1 MOL      0.074515
     35 H15         0.3650    0.0430   -6.4200 hc        1 MOL      0.074515
     36 H16        -1.0680    0.9430   -4.4540 hx        1 MOL      0.101029
     37 H17        -1.6440   -0.6430   -4.2200 hx        1 MOL      0.101029
     38 H18        -2.2040    0.6240   -6.7800 hn        1 MOL      0.328078
     39 H19        -2.8330   -0.7090   -6.1970 hn        1 MOL      0.328078
     40 H20        -3.2370    0.7840   -5.5910 hn        1 MOL      0.328078
     41 N4          0.0910   -2.8000   -0.2930 n         1 MOL     -0.145643
     42 C13        -0.6360   -1.5560    0.0940 c3        1 MOL     -0.131364
     43 C14        -1.3480   -0.7600   -1.0480 c         1 MOL      0.277634
     44 O6         -0.7880    0.1530   -1.6060 o         1 MOL     -0.338898
     45 C15         0.3510   -0.6710    0.9640 c3        1 MOL      0.301903
     46 C16         0.8230   -1.3750    2.2590 c         1 MOL      0.362448
     47 O7          0.2730   -2.4130    2.6700 o         1 MOL     -0.723663
     48 O8          1.6230   -0.8180    3.0530 o         1 MOL     -0.723663
     49 H21        -0.2280   -3.6230    0.2000 hn        1 MOL      0.231631
     50 H22        -1.4140   -1.9170    0.7600 h1        1 MOL      0.056191
     51 H23        -0.1810    0.2550    1.1860 hc        1 MOL      0.021419
     52 H24         1.2060   -0.3310    0.3920 hc        1 MOL      0.021419
     53 N5         -2.5420   -1.1770   -1.4910 n         1 MOL     -0.226803
     54 C17        -3.2880   -2.4200   -1.2600 c3        1 MOL     -0.073189
     55 C18        -4.4430   -2.5900   -2.3280 c         1 MOL      0.601335
     56 O9         -4.3660   -2.0980   -3.4480 o         1 MOL     -0.568436
     57 H25        -2.9520   -0.5140   -2.1380 hn        1 MOL      0.212670
     58 H26        -3.6960   -2.1940   -0.2760 h1        1 MOL      0.085872
     59 H27        -2.6910   -3.3270   -1.3270 h1        1 MOL      0.085872
     60 N6         -5.5170   -3.3040   -1.9790 n         1 MOL     -0.576861
     61 C19        -5.7340   -4.0210   -0.6910 c3        1 MOL      0.264342
     62 C20        -6.5360   -3.1750    0.3880 c         1 MOL      0.489902
     63 O10        -7.3770   -2.3920    0.0470 o         1 MOL     -0.422846
     64 C21        -6.4910   -5.3130   -0.8600 c3        1 MOL     -0.206170
     65 C22        -7.6820   -5.0760   -1.7720 c         1 MOL      0.688817
     66 O11        -8.7970   -4.7380   -1.3470 o         1 MOL     -0.676260
     67 O12        -7.4700   -4.9610   -2.9910 o         1 MOL     -0.676260
     68 H28        -6.2950   -3.2910   -2.6160 hn        1 MOL      0.363819
     69 H29        -4.7950   -4.1560   -0.1390 h1        1 MOL     -0.066881
     70 H30        -6.7740   -5.6710    0.1300 hc        1 MOL      0.022211
     71 H31        -5.9260   -6.1340   -1.3140 hc        1 MOL      0.022211
     72 N7         -6.3240   -3.4450    1.6450 n         1 MOL     -0.392298
     73 C23        -7.0280   -2.9040    2.8540 c3        1 MOL     -0.228477
     74 C24        -6.6700   -1.4750    3.2100 c         1 MOL      0.373513
     75 O13        -6.7060   -1.0410    4.4040 o         1 MOL     -0.547766
     76 H32        -5.5430   -4.0360    1.8920 hn        1 MOL      0.261001
     77 H33        -6.8960   -3.5280    3.7380 h1        1 MOL      0.166921
     78 H34        -8.0760   -3.0880    2.5990 h1        1 MOL      0.166921
     79 N8         -6.2690   -0.6840    2.2590 n         1 MOL     -0.018474
     80 C25        -5.7840    0.6910    2.2580 c3        1 MOL     -0.217940
     81 C26        -5.8250    1.2290    0.8420 c         1 MOL      0.678344
     82 O14        -5.8450    0.4630   -0.1060 o         1 MOL     -0.453988
     83 C27        -4.3300    0.8640    2.7780 c3        1 MOL      0.502212
     84 C28        -3.1800    0.1560    2.1340 c3        1 MOL     -0.580644
     85 O15        -4.3480    0.5300    4.1700 oh        1 MOL     -0.651084
     86 H35        -6.3080   -1.0470    1.3140 hn        1 MOL      0.042187
     87 H36        -6.2960    1.2880    3.0220 h1        1 MOL      0.115961
     88 H37        -4.0500    1.9170    2.7100 h1        1 MOL      0.033659
     89 H38        -4.5000   -0.4210    4.1630 ho        1 MOL      0.383988
     90 H39        -3.3980   -0.0600    1.0970 hc        1 MOL      0.124034
     91 H40        -2.2830    0.7500    2.3190 hc        1 MOL      0.124034
     92 H41        -2.9690   -0.8320    2.5630 hc        1 MOL      0.124034
     93 N9         -5.9100    2.5900    0.6230 n         1 MOL     -0.647945
     94 C29        -5.7180    3.2080   -0.6490 c3        1 MOL     -0.039121
     95 C30        -4.2600    3.3690   -0.9460 c         1 MOL      0.539556
     96 O16        -3.8320    2.9620   -2.0230 o         1 MOL     -0.527145
     97 C31        -6.4160    4.6270   -0.8290 c3        1 MOL      0.214555
     98 C32        -7.9570    4.4570   -0.5410 c3        1 MOL      0.076621
     99 C33        -6.3150    5.1960   -2.2380 c3        1 MOL     -0.326476
    100 C34        -8.6990    5.7860   -0.1790 c3        1 MOL     -0.314482
    101 H42        -5.9000    3.2030    1.4270 hn        1 MOL      0.271020
    102 H43        -6.1600    2.4710   -1.3160 h1        1 MOL      0.113909
    103 H44        -5.9320    5.3370   -0.1550 hc        1 MOL     -0.018555
    104 H45        -8.1680    3.7780    0.2750 hc        1 MOL      0.023827
    105 H46        -8.4380    3.9280   -1.3630 hc        1 MOL      0.023827
    106 H47        -7.0770    5.9690   -2.3410 hc        1 MOL      0.083598
    107 H48        -5.3570    5.5760   -2.5960 hc        1 MOL      0.083598
    108 H49        -6.3890    4.3320   -2.9000 hc        1 MOL      0.083598
    109 H50        -9.0480    6.2240   -1.1180 hc        1 MOL      0.079282
    110 H51        -9.4970    5.4950    0.5070 hc        1 MOL      0.079282
    111 H52        -8.0430    6.4230    0.4170 hc        1 MOL      0.079282
    112 N10        -3.4180    3.9110   -0.0160 n         1 MOL     -0.420161
    113 C35        -2.0330    4.4240   -0.2810 c3        1 MOL     -0.065135
    114 C36        -1.0140    3.4060   -0.0590 c         1 MOL      0.672174
    115 O17        -1.0340    2.6080    0.8610 o         1 MOL     -0.541537
    116 C37        -1.7610    5.7940    0.4240 c3        1 MOL      0.406700
    117 C38        -2.1110    5.6650    1.8580 c3        1 MOL     -0.433471
    118 O18        -2.4980    6.8720   -0.0500 oh        1 MOL     -0.652318
    119 H53        -3.7660    4.1540    0.9020 hn        1 MOL      0.263481
    120 H54        -2.1000    4.8050   -1.3020 h1        1 MOL      0.137847
    121 H55        -0.7100    6.0540    0.4500 h1        1 MOL      0.011797
    122 H56        -2.4670    7.4790    0.6860 ho        1 MOL      0.416665
    123 H57        -1.4340    4.9530    2.3330 hc        1 MOL      0.106246
    124 H58        -1.9460    6.6270    2.3430 hc        1 MOL      0.106246
    125 H59        -3.0120    5.1050    2.1030 hc        1 MOL      0.106246
    126 N11         0.0850    3.5850   -0.8430 n         1 MOL     -0.769341
    127 C39         1.2330    2.6820   -0.9460 c3        1 MOL      0.110882
    128 C40         2.4670    3.2990   -0.2120 c         1 MOL      0.704721
    129 O19         2.5840    4.4600    0.1840 o         1 MOL     -0.572802
    130 C41         1.5520    2.4650   -2.4320 c3        1 MOL      0.766794
    131 C42         2.1140    3.7620   -3.0550 c3        1 MOL     -0.495310
    132 O20         0.4540    2.0580   -3.2340 oh        1 MOL     -0.648224
    133 H60         0.0790    4.3690   -1.4800 hn        1 MOL      0.307085
    134 H61         1.0490    1.7010   -0.5130 h1        1 MOL     -0.000488
    135 H62         2.3000    1.6660   -2.4270 h1        1 MOL     -0.160084
    136 H63        -0.0180    1.4630   -2.6480 ho        1 MOL      0.255943
    137 H64         2.1050    3.5300   -4.1170 hc        1 MOL      0.118425
    138 H65         1.4860    4.6150   -2.8050 hc        1 MOL      0.118425
    139 H66         3.1460    3.8810   -2.7210 hc        1 MOL      0.118425
    140 N12         3.5600    2.4640   -0.2050 n         1 MOL     -0.740518
    141 C43         4.8660    2.6590    0.4670 c3        1 MOL      0.029730
    142 C44         5.4260    1.5270    1.2960 c         1 MOL      0.552790
    143 O21         6.3130    1.7320    2.1420 o         1 MOL     -0.620264
    144 C45         5.8180    3.1810   -0.6180 c3        1 MOL     -0.242646
    145 C46         7.2000    3.7090   -0.2520 c3        1 MOL     -0.035294
    146 C47         7.1570    5.0070    0.5650 c3        1 MOL     -0.051158
    147 C48         6.8510    4.8070    2.0770 c3        1 MOL      0.175298
    148 N13         6.5040    6.0560    2.8840 n4        1 MOL     -0.389329
    149 H67         3.3430    1.5320   -0.5030 hn        1 MOL      0.295601
    150 H68         4.6520    3.5190    1.1030 h1        1 MOL      0.112021
    151 H69         5.2810    4.0420   -1.0190 hc        1 MOL      0.116318
    152 H70         5.9970    2.3860   -1.3400 hc        1 MOL      0.116318
    153 H71         7.6960    3.9790   -1.1840 hc        1 MOL      0.069745
    154 H72         7.7350    2.9090    0.2720 hc        1 MOL      0.069745
    155 H73         6.3930    5.6930    0.1820 hc        1 MOL      0.021102
    156 H74         8.0990    5.5560    0.5200 hc        1 MOL      0.021102
    157 H75         7.7610    4.4180    2.5290 hx        1 MOL      0.041342
    158 H76         6.0570    4.0610    2.1380 hx        1 MOL      0.041342
    159 H77         7.0470    6.8780    2.6560 hn        1 MOL      0.308517
    160 H78         5.5560    6.3730    2.7590 hn        1 MOL      0.308517
    161 H79         6.6420    5.8610    3.8680 hn        1 MOL      0.308517
    162 N14         5.0480    0.3030    0.9690 n         1 MOL     -0.046819
    163 C49         5.5050   -0.9290    1.7700 c3        1 MOL     -0.467247
    164 C50         7.0080   -1.2970    1.4920 c         1 MOL      0.619518
    165 O22         7.4680   -1.1090    0.3780 o         1 MOL     -0.506457
    166 C51         4.5420   -2.0950    1.5340 c3        1 MOL      0.421525
    167 C52         4.6520   -3.3080    2.4480 c3        1 MOL     -0.190024
    168 C53         4.7410   -3.0390    3.8990 c         1 MOL      0.755030
    169 O23         3.6680   -2.7050    4.5310 o         1 MOL     -0.785588
    170 O24         5.8640   -3.1200    4.4010 o         1 MOL     -0.785588
    171 H80         4.5340    0.1420    0.1160 hn        1 MOL      0.042008
    172 H81         5.4270   -0.6050    2.8110 h1        1 MOL      0.135681
    173 H82         4.6630   -2.4250    0.5070 hc        1 MOL     -0.064589
    174 H83         3.4870   -1.8130    1.6260 hc        1 MOL     -0.064589
    175 H84         5.5140   -3.9150    2.1800 hc        1 MOL      0.038398
    176 H85         3.8030   -3.9860    2.2960 hc        1 MOL      0.038398
    177 N15         7.6860   -1.9000    2.5060 n         1 MOL     -0.379648
    178 C54         9.0890   -2.2640    2.2930 c3        1 MOL     -0.188441
    179 H86         9.2430   -2.5210    1.2450 h1        1 MOL      0.090029
    180 H87         9.7280   -1.4210    2.5580 h1        1 MOL      0.090029
    181 H88         9.3400   -3.1220    2.9180 h1        1 MOL      0.090029
    182 H89         7.3500   -1.9120    3.4600 hn        1 MOL      0.409934
    183 Ca1         1.1350   -2.2550    5.0360 Ca        1 MOL      1.748128
    184 O25        -1.0630   -0.4030    5.0990 oh        1 MOL     -0.848763
    185 H90        -1.1850    0.2600    4.4140 ho        1 MOL      0.429915
    186 H91        -1.9540   -0.6100    5.3930 ho        1 MOL      0.429915
    187 O26         1.7240    0.2260    6.3130 oh        1 MOL     -0.848763
    188 H92         1.7750    0.3990    7.2460 ho        1 MOL      0.429915
    189 H93         1.4130    1.0490    5.9330 ho        1 MOL      0.429915
    190 O27        -1.2500   -3.4620    5.4100 oh        1 MOL     -0.848763
    191 H94        -1.5130   -4.2710    4.9710 ho        1 MOL      0.429915
    192 H95        -2.0580   -2.9630    5.4950 ho        1 MOL      0.429915
@<TRIPOS>BOND
     1    1    2 1   
     2    1    4 1   
     3    1    5 1   
     4    1    6 1   
     5    2    3 2   
     6    2    7 1   
     7    7    8 1   
     8    7   15 1   
     9    8    9 1   
    10    8   11 1   
    11    8   16 1   
    12    9   10 2   
    13    9   19 1   
    14   11   12 1   
    15   11   17 1   
    16   11   18 1   
    17   12   13 1   
    18   12   14 1   
    19   19   20 1   
    20   19   28 1   
    21   20   21 1   
    22   20   23 1   
    23   20   29 1   
    24   21   22 2   
    25   21   41 1   
    26   23   24 1   
    27   23   30 1   
    28   23   31 1   
    29   24   25 1   
    30   24   32 1   
    31   24   33 1   
    32   25   26 1   
    33   25   34 1   
    34   25   35 1   
    35   26   27 1   
    36   26   36 1   
    37   26   37 1   
    38   27   38 1   
    39   27   39 1   
    40   27   40 1   
    41   41   42 1   
    42   41   49 1   
    43   42   43 1   
    44   42   45 1   
    45   42   50 1   
    46   43   44 2   
    47   43   53 1   
    48   45   46 1   
    49   45   51 1   
    50   45   52 1   
    51   46   47 1   
    52   46   48 1   
    53   53   54 1   
    54   53   57 1   
    55   54   55 1   
    56   54   58 1   
    57   54   59 1   
    58   55   56 2   
    59   55   60 1   
    60   60   61 1   
    61   60   68 1   
    62   61   62 1   
    63   61   64 1   
    64   61   69 1   
    65   62   63 2   
    66   62   72 1   
    67   64   65 1   
    68   64   70 1   
    69   64   71 1   
    70   65   66 1   
    71   65   67 1   
    72   72   73 1   
    73   72   76 1   
    74   73   74 1   
    75   73   77 1   
    76   73   78 1   
    77   74   75 2   
    78   74   79 1   
    79   79   80 1   
    80   79   86 1   
    81   80   81 1   
    82   80   83 1   
    83   80   87 1   
    84   81   82 2   
    85   81   93 1   
    86   83   84 1   
    87   83   85 1   
    88   83   88 1   
    89   84   90 1   
    90   84   91 1   
    91   84   92 1   
    92   85   89 1   
    93   93   94 1   
    94   93  101 1   
    95   94   95 1   
    96   94   97 1   
    97   94  102 1   
    98   95   96 2   
    99   95  112 1   
   100   97   98 1   
   101   97   99 1   
   102   97  103 1   
   103   98  100 1   
   104   98  104 1   
   105   98  105 1   
   106   99  106 1   
   107   99  107 1   
   108   99  108 1   
   109  100  109 1   
   110  100  110 1   
   111  100  111 1   
   112  112  113 1   
   113  112  119 1   
   114  113  114 1   
   115  113  116 1   
   116  113  120 1   
   117  114  115 2   
   118  114  126 1   
   119  116  117 1   
   120  116  118 1   
   121  116  121 1   
   122  117  123 1   
   123  117  124 1   
   124  117  125 1   
   125  118  122 1   
   126  126  127 1   
   127  126  133 1   
   128  127  128 1   
   129  127  130 1   
   130  127  134 1   
   131  128  129 2   
   132  128  140 1   
   133  130  131 1   
   134  130  132 1   
   135  130  135 1   
   136  131  137 1   
   137  131  138 1   
   138  131  139 1   
   139  132  136 1   
   140  140  141 1   
   141  140  149 1   
   142  141  142 1   
   143  141  144 1   
   144  141  150 1   
   145  142  143 2   
   146  142  162 1   
   147  144  145 1   
   148  144  151 1   
   149  144  152 1   
   150  145  146 1   
   151  145  153 1   
   152  145  154 1   
   153  146  147 1   
   154  146  155 1   
   155  146  156 1   
   156  147  148 1   
   157  147  157 1   
   158  147  158 1   
   159  148  159 1   
   160  148  160 1   
   161  148  161 1   
   162  162  163 1   
   163  162  171 1   
   164  163  164 1   
   165  163  166 1   
   166  163  172 1   
   167  164  165 2   
   168  164  177 1   
   169  166  167 1   
   170  166  173 1   
   171  166  174 1   
   172  167  168 1   
   173  167  175 1   
   174  167  176 1   
   175  168  169 1   
   176  168  170 1   
   177  177  178 1   
   178  177  182 1   
   179  178  179 1   
   180  178  180 1   
   181  178  181 1   
   182  184  185 1   
   183  184  186 1   
   184  187  188 1   
   185  187  189 1   
   186  190  191 1   
   187  190  192 1   
@<TRIPOS>SUBSTRUCTURE
     1 MOL         1 TEMP              0 ****  ****    0 ROOT
