@<TRIPOS>MOLECULE
MOL
  181   177     1     0     0
SMALL
resp


@<TRIPOS>ATOM
      1 C1          6.9920    7.1600   -1.2390 c3        1 MOL     -0.372426
      2 C2          6.7900    5.9580   -0.2660 c         1 MOL      0.775207
      3 O1          5.8120    6.0090    0.4930 o         1 MOL     -0.618065
      4 H1          7.9520    7.0590   -1.7450 hc        1 MOL      0.104801
      5 H2          6.1910    7.1690   -1.9770 hc        1 MOL      0.104801
      6 H3          6.9770    8.0920   -0.6730 hc        1 MOL      0.104801
      7 N1          7.5410    4.9110   -0.3300 n         1 MOL     -0.782583
      8 C3          8.3610    4.4050   -1.4450 c3        1 MOL      0.405100
      9 C4          9.4320    3.3790   -0.9800 c         1 MOL      0.182083
     10 O2         10.2720    2.8870   -1.8080 o         1 MOL     -0.486311
     11 C5          7.4440    3.6940   -2.4650 c3        1 MOL     -0.443190
     12 C6          6.4130    2.7690   -1.8440 c         1 MOL      0.770761
     13 O3          5.1840    2.9710   -1.9810 o         1 MOL     -0.644725
     14 O4          6.8700    1.9290   -1.0670 o         1 MOL     -0.644725
     15 H4          7.2380    4.2170    0.3380 hn        1 MOL      0.370299
     16 H5          8.8600    5.2180   -1.9650 h1        1 MOL      0.048052
     17 H6          8.0110    3.0310   -3.1130 hc        1 MOL      0.110539
     18 H7          6.9200    4.4400   -3.0660 hc        1 MOL      0.110539
     19 N2          9.3590    2.9440    0.2900 n         1 MOL     -0.165767
     20 C7         10.3710    2.0370    0.7770 c3        1 MOL      0.099897
     21 C8         10.0690    0.5150    0.5700 c         1 MOL      0.410515
     22 O5         10.8470   -0.3300    1.0450 o         1 MOL     -0.553784
     23 C9         10.6970    2.3950    2.2500 c3        1 MOL     -0.248182
     24 H8          8.7320    3.3960    0.9430 hn        1 MOL      0.203016
     25 H9         11.2810    2.1470    0.1910 h1        1 MOL      0.094480
     26 H10         9.7530    2.4280    2.7970 hc        1 MOL      0.067932
     27 H11        11.3260    1.6390    2.7250 hc        1 MOL      0.067932
     28 H12        11.1720    3.3580    2.3990 hc        1 MOL      0.067932
     29 N3          8.9640    0.1900   -0.0610 n         1 MOL     -0.106468
     30 C10         8.5870   -1.2330   -0.3660 c3        1 MOL     -0.020435
     31 C11         8.1110   -1.5600   -1.8720 c         1 MOL      0.370957
     32 O6          8.7000   -2.3880   -2.5780 o         1 MOL     -0.511710
     33 C12         7.6780   -1.7440    0.6940 c3        1 MOL     -0.031899
     34 C13         6.4000   -0.9600    0.7600 c         1 MOL      0.578084
     35 O7          6.2640   -0.0860    1.6380 o         1 MOL     -0.654687
     36 O8          5.6070   -1.1920   -0.1790 o         1 MOL     -0.654687
     37 H13         8.3100    0.9000   -0.3520 hn        1 MOL      0.051403
     38 H14         9.5460   -1.7410   -0.3200 h1        1 MOL      0.091285
     39 H15         8.1640   -1.6960    1.6680 hc        1 MOL      0.006367
     40 H16         7.4790   -2.7900    0.4250 hc        1 MOL      0.006367
     41 N4          7.1720   -0.7740   -2.4230 n         1 MOL     -0.069803
     42 C14         6.5670   -1.0830   -3.8030 c3        1 MOL     -0.338256
     43 C15         5.7610   -2.3670   -3.7460 c         1 MOL      0.668819
     44 O9          5.3270   -2.8530   -4.8040 o         1 MOL     -0.574387
     45 H17         6.7230   -0.1440   -1.7830 hn        1 MOL      0.131440
     46 H18         7.4180   -1.2720   -4.4470 h1        1 MOL      0.139295
     47 H19         5.8930   -0.2870   -4.1270 h1        1 MOL      0.139295
     48 N5          5.4220   -2.8700   -2.5440 n         1 MOL     -0.401355
     49 C16         4.7490   -4.1580   -2.2680 c3        1 MOL      0.086231
     50 C17         3.5510   -4.0920   -1.4080 c         1 MOL      0.416765
     51 O10         2.7730   -5.0510   -1.5220 o         1 MOL     -0.500532
     52 C18         5.8370   -5.0600   -1.6740 c3        1 MOL     -0.135216
     53 C19         5.5910   -6.4740   -1.2510 c         1 MOL      0.738340
     54 N6          6.1100   -6.8990   -0.1570 n         1 MOL     -0.841022
     55 O11         4.9970   -7.2390   -1.9800 o         1 MOL     -0.585014
     56 H20         5.7220   -2.3800   -1.7050 hn        1 MOL      0.255990
     57 H21         4.4710   -4.6260   -3.2110 h1        1 MOL      0.085669
     58 H22         6.0080   -4.5350   -0.7240 hc        1 MOL      0.039755
     59 H23         6.7600   -5.1280   -2.2470 hc        1 MOL      0.039755
     60 H24         6.4450   -6.3180    0.6010 hn        1 MOL      0.363127
     61 H25         5.8980   -7.8510    0.0930 hn        1 MOL      0.363127
     62 N7          3.3440   -3.0210   -0.6790 n         1 MOL     -0.219411
     63 C20         2.1310   -2.8850    0.1720 c3        1 MOL     -0.092398
     64 C21         2.0480   -1.4800    0.8840 c         1 MOL      0.530362
     65 O12         2.5150   -0.4200    0.4330 o         1 MOL     -0.580035
     66 H26         3.9090   -2.1930   -0.8220 hn        1 MOL      0.122166
     67 H27         2.1500   -3.7600    0.8250 h1        1 MOL      0.113216
     68 H28         1.1870   -3.0430   -0.3490 h1        1 MOL      0.113216
     69 N8          1.4620   -1.4120    2.1150 n         1 MOL     -0.357966
     70 C22         0.8640   -2.5070    2.9140 c3        1 MOL     -0.095043
     71 C23        -0.6570   -2.2900    3.0460 c         1 MOL      0.500279
     72 O13        -1.4730   -3.2530    3.1150 o         1 MOL     -0.506429
     73 C24         1.4690   -2.4010    4.3560 c3        1 MOL      0.377475
     74 C25         0.8250   -3.1500    5.5360 c3        1 MOL     -0.534017
     75 O14         2.7740   -2.9300    4.3190 oh        1 MOL     -0.581885
     76 H29         1.7050   -0.5840    2.6280 hn        1 MOL      0.169069
     77 H30         0.9780   -3.4960    2.4670 h1        1 MOL      0.144487
     78 H31         1.5130   -1.3250    4.5840 h1        1 MOL     -0.003186
     79 H32         3.3300   -2.2520    3.9290 ho        1 MOL      0.354251
     80 H33        -0.2070   -2.8960    5.7940 hc        1 MOL      0.157663
     81 H34         0.9760   -4.1750    5.1830 hc        1 MOL      0.157663
     82 H35         1.3960   -2.9720    6.4360 hc        1 MOL      0.157663
     83 N9         -1.1190   -0.9870    3.1040 n         1 MOL     -0.430934
     84 C26        -2.5150   -0.6190    2.9240 c3        1 MOL      0.035982
     85 C27        -2.6280    0.3210    1.6730 c         1 MOL      0.502579
     86 O15        -1.9200    1.3490    1.6200 o         1 MOL     -0.573939
     87 C28        -3.1150   -0.0550    4.1990 c3        1 MOL      0.154028
     88 C29        -2.6840   -0.5580    5.6370 c3        1 MOL     -0.018948
     89 C30        -4.6260    0.0970    4.0730 c3        1 MOL     -0.155857
     90 C31        -3.4140   -1.8090    6.0850 c3        1 MOL      0.073387
     91 H36        -0.4300   -0.2540    3.0030 hn        1 MOL      0.234539
     92 H37        -3.1390   -1.4670    2.6360 h1        1 MOL      0.137770
     93 H38        -2.7450    0.9720    4.1940 hc        1 MOL     -0.021753
     94 H39        -2.9480    0.1600    6.4160 hc        1 MOL     -0.016967
     95 H40        -1.6120   -0.6860    5.7090 hc        1 MOL     -0.016967
     96 H41        -4.8270    0.6100    3.1300 hc        1 MOL      0.054537
     97 H42        -5.0310   -0.9180    4.0740 hc        1 MOL      0.054537
     98 H43        -4.9570    0.7520    4.8750 hc        1 MOL      0.054537
     99 H44        -3.3510   -2.6110    5.3460 hc        1 MOL     -0.026580
    100 H45        -2.9970   -2.2030    7.0070 hc        1 MOL     -0.026580
    101 H46        -4.4770   -1.6520    6.2660 hc        1 MOL     -0.026580
    102 N10        -3.5650    0.1090    0.7120 n         1 MOL     -0.447104
    103 C32        -4.4080   -1.1050    0.5080 c3        1 MOL      0.007199
    104 C33        -5.6230   -0.7310   -0.2860 c         1 MOL      0.609952
    105 O16        -5.6910    0.3900   -0.8710 o         1 MOL     -0.539096
    106 C34        -3.5410   -2.1700   -0.2320 c3        1 MOL     -0.285610
    107 C35        -4.1120   -3.5950   -0.3510 c         1 MOL      0.768799
    108 O17        -4.1090   -4.0580   -1.4750 o         1 MOL     -0.729245
    109 O18        -4.4780   -4.2570    0.6290 o         1 MOL     -0.729245
    110 H47        -3.7090    0.9440    0.1610 hn        1 MOL      0.304469
    111 H48        -4.6850   -1.5520    1.4630 h1        1 MOL      0.032639
    112 H49        -2.6320   -2.1990    0.3700 hc        1 MOL      0.076855
    113 H50        -3.2800   -1.8290   -1.2350 hc        1 MOL      0.076855
    114 N11        -6.6740   -1.6080   -0.2210 n         1 MOL     -0.630428
    115 C36        -7.9490   -1.3040   -0.8020 c3        1 MOL      0.490661
    116 C37        -8.9750   -0.7190    0.1820 c         1 MOL      0.195119
    117 O19        -9.2580   -1.3480    1.1980 o         1 MOL     -0.510973
    118 C38        -8.4500   -2.5350   -1.5850 c3        1 MOL     -0.253587
    119 C39        -9.7930   -2.4110   -2.2470 ca        1 MOL      0.123330
    120 C40        -9.7700   -2.2110   -3.6810 ca        1 MOL     -0.156465
    121 C41       -10.9750   -2.4760   -1.5840 ca        1 MOL     -0.156465
    122 C42       -11.0370   -2.1330   -4.3330 ca        1 MOL     -0.118359
    123 C43       -12.1920   -2.5080   -2.2160 ca        1 MOL     -0.118359
    124 C44       -12.2300   -2.1570   -3.6130 ca        1 MOL     -0.149045
    125 H51        -6.5580   -2.4620    0.3160 hn        1 MOL      0.323617
    126 H52        -7.8070   -0.5430   -1.5670 h1        1 MOL     -0.018230
    127 H53        -8.4950   -3.4100   -0.9270 hc        1 MOL      0.089290
    128 H54        -7.6800   -2.7070   -2.3380 hc        1 MOL      0.089290
    129 H55        -8.8280   -2.1170   -4.2110 ha        1 MOL      0.128810
    130 H56       -10.9650   -2.7250   -0.5340 ha        1 MOL      0.128810
    131 H57       -11.0550   -1.9530   -5.3970 ha        1 MOL      0.104941
    132 H58       -13.1000   -2.6550   -1.6350 ha        1 MOL      0.104941
    133 H59       -13.1620   -2.0570   -4.1570 ha        1 MOL      0.101173
    134 N12        -9.7540    0.2540   -0.2750 n         1 MOL      0.144542
    135 C45        -9.7000    0.8830   -1.5810 c3        1 MOL      0.059361
    136 C46        -8.5940    1.9590   -1.7670 c         1 MOL      0.545228
    137 O20        -8.0620    2.1440   -2.8320 o         1 MOL     -0.593579
    138 C47       -11.1140    1.4140   -1.7770 c3        1 MOL     -0.113671
    139 C48       -11.4760    1.9550   -0.3820 c3        1 MOL      0.012314
    140 C49       -10.8490    0.8490    0.4730 c3        1 MOL     -0.241865
    141 H60        -9.5220    0.1520   -2.3750 h1        1 MOL     -0.011968
    142 H61       -11.0710    2.3050   -2.4010 hc        1 MOL      0.032919
    143 H62       -11.7110    0.5930   -2.1750 hc        1 MOL      0.032919
    144 H63       -11.0830    2.9670   -0.3620 hc        1 MOL      0.022110
    145 H64       -12.5510    1.9680   -0.1950 hc        1 MOL      0.022110
    146 H65       -10.4270    1.2130    1.4100 h1        1 MOL      0.090550
    147 H66       -11.6330    0.1020    0.6250 h1        1 MOL      0.090550
    148 N13        -8.2290    2.6450   -0.6780 n         1 MOL     -0.288833
    149 C50        -7.1960    3.6490   -0.7260 c3        1 MOL      0.049416
    150 C51        -7.5630    4.9840   -1.5370 c         1 MOL      0.400733
    151 O21        -8.2630    5.7960   -1.0110 o         1 MOL     -0.551481
    152 C52        -6.8520    3.9440    0.7870 c3        1 MOL      0.144862
    153 C53        -6.5200    2.7020    1.6340 c3        1 MOL     -0.315768
    154 C54        -6.4390    3.1140    3.0930 c         1 MOL      0.792223
    155 O22        -7.3650    2.8000    3.8360 o         1 MOL     -0.727490
    156 O23        -5.4680    3.7560    3.5740 o         1 MOL     -0.727490
    157 H67        -8.7270    2.4660    0.1820 hn        1 MOL      0.255639
    158 H68        -6.3180    3.1770   -1.1840 h1        1 MOL      0.058316
    159 H69        -7.7340    4.4440    1.1790 hc        1 MOL     -0.020933
    160 H70        -6.0460    4.6720    0.9040 hc        1 MOL     -0.020933
    161 H71        -5.5560    2.2310    1.4240 hc        1 MOL      0.036244
    162 H72        -7.3370    1.9850    1.6310 hc        1 MOL      0.036244
    163 N14        -7.1210    5.1700   -2.7750 n         1 MOL     -0.244572
    164 C55        -6.2260    4.4070   -3.6570 c3        1 MOL     -0.224202
    165 H73        -5.2490    4.8900   -3.6870 h1        1 MOL      0.102155
    166 H74        -6.1170    3.3910   -3.2750 h1        1 MOL      0.102155
    167 H75        -6.6460    4.3740   -4.6620 h1        1 MOL      0.102155
    168 H76        -7.4570    6.0620   -3.1080 hn        1 MOL      0.223490
    169 Ca1         4.6550    1.2880    0.1560 Ca        1 MOL      1.705287
    170 O24         5.9630    3.4970    1.4900 oh        1 MOL     -0.854213
    171 H77         6.0650    3.4840    2.4460 ho        1 MOL      0.415514
    172 H78         5.6940    4.3940    1.2950 ho        1 MOL      0.415514
    173 O25         2.6630    2.9330   -0.0300 oh        1 MOL     -0.854213
    174 H79         1.9300    2.3610    0.2160 ho        1 MOL      0.415514
    175 H80         2.3310    3.8250    0.1190 ho        1 MOL      0.415514
    176 O26         3.9300    1.5510    2.5930 oh        1 MOL     -0.854213
    177 H81         4.2170    1.7620    3.4850 ho        1 MOL      0.415514
    178 H82         2.9730    1.5250    2.6540 ho        1 MOL      0.415514
    179 O27         3.9140    0.3150   -2.1480 oh        1 MOL     -0.854213
    180 H83         3.1140   -0.2070   -2.2220 ho        1 MOL      0.415514
    181 H84         3.9640    0.7810   -2.9860 ho        1 MOL      0.415514
@<TRIPOS>BOND
     1    1    2 1   
     2    1    4 1   
     3    1    5 1   
     4    1    6 1   
     5    2    3 2   
     6    2    7 1   
     7    7    8 1   
     8    7   15 1   
     9    8    9 1   
    10    8   11 1   
    11    8   16 1   
    12    9   10 2   
    13    9   19 1   
    14   11   12 1   
    15   11   17 1   
    16   11   18 1   
    17   12   13 1   
    18   12   14 1   
    19   19   20 1   
    20   19   24 1   
    21   20   21 1   
    22   20   23 1   
    23   20   25 1   
    24   21   22 2   
    25   21   29 1   
    26   23   26 1   
    27   23   27 1   
    28   23   28 1   
    29   29   30 1   
    30   29   37 1   
    31   30   31 1   
    32   30   33 1   
    33   30   38 1   
    34   31   32 2   
    35   31   41 1   
    36   33   34 1   
    37   33   39 1   
    38   33   40 1   
    39   34   35 1   
    40   34   36 1   
    41   41   42 1   
    42   41   45 1   
    43   42   43 1   
    44   42   46 1   
    45   42   47 1   
    46   43   44 2   
    47   43   48 1   
    48   48   49 1   
    49   48   56 1   
    50   49   50 1   
    51   49   52 1   
    52   49   57 1   
    53   50   51 2   
    54   50   62 1   
    55   52   53 1   
    56   52   58 1   
    57   52   59 1   
    58   53   54 1   
    59   53   55 2   
    60   54   60 1   
    61   54   61 1   
    62   62   63 1   
    63   62   66 1   
    64   63   64 1   
    65   63   67 1   
    66   63   68 1   
    67   64   65 2   
    68   64   69 1   
    69   69   70 1   
    70   69   76 1   
    71   70   71 1   
    72   70   73 1   
    73   70   77 1   
    74   71   72 2   
    75   71   83 1   
    76   73   74 1   
    77   73   75 1   
    78   73   78 1   
    79   74   80 1   
    80   74   81 1   
    81   74   82 1   
    82   75   79 1   
    83   83   84 1   
    84   83   91 1   
    85   84   85 1   
    86   84   87 1   
    87   84   92 1   
    88   85   86 2   
    89   85  102 1   
    90   87   88 1   
    91   87   89 1   
    92   87   93 1   
    93   88   90 1   
    94   88   94 1   
    95   88   95 1   
    96   89   96 1   
    97   89   97 1   
    98   89   98 1   
    99   90   99 1   
   100   90  100 1   
   101   90  101 1   
   102  102  103 1   
   103  102  110 1   
   104  103  104 1   
   105  103  106 1   
   106  103  111 1   
   107  104  105 2   
   108  104  114 1   
   109  106  107 1   
   110  106  112 1   
   111  106  113 1   
   112  107  108 1   
   113  107  109 1   
   114  114  115 1   
   115  114  125 1   
   116  115  116 1   
   117  115  118 1   
   118  115  126 1   
   119  116  117 2   
   120  116  134 1   
   121  118  119 1   
   122  118  127 1   
   123  118  128 1   
   124  119  120 ar  
   125  119  121 ar  
   126  120  122 ar  
   127  120  129 1   
   128  121  123 ar  
   129  121  130 1   
   130  122  124 ar  
   131  122  131 1   
   132  123  124 ar  
   133  123  132 1   
   134  124  133 1   
   135  134  135 1   
   136  134  140 1   
   137  135  136 1   
   138  135  138 1   
   139  135  141 1   
   140  136  137 2   
   141  136  148 1   
   142  138  139 1   
   143  138  142 1   
   144  138  143 1   
   145  139  140 1   
   146  139  144 1   
   147  139  145 1   
   148  140  146 1   
   149  140  147 1   
   150  148  149 1   
   151  148  157 1   
   152  149  150 1   
   153  149  152 1   
   154  149  158 1   
   155  150  151 2   
   156  150  163 1   
   157  152  153 1   
   158  152  159 1   
   159  152  160 1   
   160  153  154 1   
   161  153  161 1   
   162  153  162 1   
   163  154  155 1   
   164  154  156 1   
   165  163  164 1   
   166  163  168 1   
   167  164  165 1   
   168  164  166 1   
   169  164  167 1   
   170  170  171 1   
   171  170  172 1   
   172  173  174 1   
   173  173  175 1   
   174  176  177 1   
   175  176  178 1   
   176  179  180 1   
   177  179  181 1   
@<TRIPOS>SUBSTRUCTURE
     1 MOL         1 TEMP              0 ****  ****    0 ROOT
