@<TRIPOS>MOLECULE
MOL
  181   177     1     0     0
SMALL
resp


@<TRIPOS>ATOM
      1 C1          2.2600   -4.1910    3.6830 c3        1 MOL     -0.250821
      2 C2          3.6830   -3.5680    3.4410 c         1 MOL      0.653756
      3 O1          4.1610   -2.6440    4.1040 o         1 MOL     -0.597997
      4 H1          1.6070   -3.4420    4.1310 hc        1 MOL      0.045778
      5 H2          1.8400   -4.5180    2.7320 hc        1 MOL      0.045778
      6 H3          2.3470   -5.0450    4.3550 hc        1 MOL      0.045778
      7 N1          4.5010   -4.2110    2.6310 n         1 MOL     -0.575352
      8 C3          5.8810   -3.8600    2.4510 c3        1 MOL      0.339265
      9 C4          6.0650   -3.6520    0.9180 c         1 MOL      0.459344
     10 O2          5.5330   -4.3370    0.0650 o         1 MOL     -0.504405
     11 C5          6.7700   -5.0230    2.9880 c3        1 MOL     -0.191360
     12 C6          8.2560   -4.6610    3.0020 c         1 MOL      0.699107
     13 O3          9.1740   -5.5220    2.7210 o         1 MOL     -0.728220
     14 O4          8.5510   -3.4940    3.3380 o         1 MOL     -0.728220
     15 H4          4.1490   -4.9710    2.0560 hn        1 MOL      0.284526
     16 H5          6.1140   -2.9470    3.0070 h1        1 MOL      0.035471
     17 H6          6.5420   -5.9610    2.4810 hc        1 MOL      0.004230
     18 H7          6.5010   -5.1400    4.0410 hc        1 MOL      0.004230
     19 N2          6.9540   -2.6720    0.6230 n         1 MOL     -0.537724
     20 C7          7.0840   -2.1480   -0.6780 c3        1 MOL      0.385046
     21 C8          6.0150   -1.1440   -1.0210 c         1 MOL      0.554779
     22 O5          5.5190   -0.4890   -0.1420 o         1 MOL     -0.563704
     23 C9          8.3960   -1.4170   -0.7050 c3        1 MOL     -0.549789
     24 H8          7.3220   -2.1240    1.3840 hn        1 MOL      0.292491
     25 H9          7.0750   -2.9330   -1.4300 h1        1 MOL      0.027996
     26 H10         8.2610   -0.4990   -0.1360 hc        1 MOL      0.137418
     27 H11         9.1200   -2.0930   -0.2440 hc        1 MOL      0.137418
     28 H12         8.6830   -1.2810   -1.7390 hc        1 MOL      0.137418
     29 N3          5.5710   -1.1530   -2.2890 n         1 MOL     -0.720362
     30 C10         4.5070   -0.3550   -2.8440 c3        1 MOL      0.629526
     31 C11         5.0330    0.9370   -3.5400 c         1 MOL      0.220007
     32 O6          4.5130    1.4540   -4.5510 o         1 MOL     -0.500120
     33 C12         3.6270   -1.0580   -3.7830 c3        1 MOL     -0.342224
     34 C13         3.3110   -2.5080   -3.3770 c         1 MOL      0.695343
     35 O7          2.2740   -2.7770   -2.7690 o         1 MOL     -0.732096
     36 O8          4.1370   -3.4450   -3.6290 o         1 MOL     -0.732096
     37 H13         5.8820   -1.9370   -2.8390 hn        1 MOL      0.290706
     38 H14         3.8500   -0.0800   -2.0200 h1        1 MOL     -0.004998
     39 H15         4.1960   -1.1310   -4.7030 hc        1 MOL      0.069840
     40 H16         2.7060   -0.4640   -3.8680 hc        1 MOL      0.069840
     41 N4          6.1110    1.5240   -2.9970 n         1 MOL     -0.291806
     42 C14         6.6470    2.8530   -3.4060 c3        1 MOL      0.071623
     43 C15         5.9100    4.0000   -2.7690 c         1 MOL      0.528250
     44 O9          6.3610    4.6540   -1.8340 o         1 MOL     -0.540643
     45 H17         6.4900    1.0830   -2.1600 hn        1 MOL      0.246572
     46 H18         6.6620    2.9400   -4.4900 h1        1 MOL      0.028866
     47 H19         7.6970    2.8900   -3.1050 h1        1 MOL      0.028866
     48 N5          4.6870    4.3220   -3.2890 n         1 MOL     -0.457010
     49 C16         3.9100    5.4250   -2.7280 c3        1 MOL     -0.014588
     50 C17         3.4600    4.9660   -1.2700 c         1 MOL      0.692890
     51 O10         2.8150    3.9700   -1.0810 o         1 MOL     -0.478852
     52 C18         2.5630    5.5650   -3.5370 c3        1 MOL     -0.417333
     53 C19         2.6600    6.3280   -4.8550 c         1 MOL      0.812090
     54 N6          1.5580    6.6420   -5.3850 n         1 MOL     -0.815758
     55 O11         3.7460    6.5950   -5.3500 o         1 MOL     -0.612820
     56 H20         4.3560    3.9550   -4.1740 hn        1 MOL      0.326137
     57 H21         4.4220    6.3920   -2.7210 h1        1 MOL      0.084251
     58 H22         1.9390    6.2550   -2.9680 hc        1 MOL      0.121909
     59 H23         2.1530    4.5850   -3.7520 hc        1 MOL      0.121909
     60 H24         0.7380    6.3310   -4.8750 hn        1 MOL      0.368154
     61 H25         1.5340    7.0760   -6.2840 hn        1 MOL      0.368154
     62 N7          3.8180    5.8170   -0.2750 n         1 MOL     -0.543307
     63 C20         3.2360    5.7820    1.1160 c3        1 MOL     -0.084017
     64 C21         1.7740    5.9920    1.3550 c         1 MOL      0.517615
     65 O12         1.0010    6.0410    0.3830 o         1 MOL     -0.450866
     66 H26         4.5850    6.4670   -0.3940 hn        1 MOL      0.307300
     67 H27         3.7600    6.5120    1.7350 h1        1 MOL      0.098310
     68 H28         3.3780    4.8260    1.6040 h1        1 MOL      0.098310
     69 N8          1.4620    6.1200    2.6780 n         1 MOL     -0.479854
     70 C22         0.1340    6.5520    3.0760 c3        1 MOL     -0.098413
     71 C23        -0.9680    5.5120    3.0630 c         1 MOL      0.497785
     72 O13        -2.0620    5.9030    2.6910 o         1 MOL     -0.546073
     73 C24         0.1320    7.3510    4.4670 c3        1 MOL      0.386290
     74 C25         0.6570    6.6620    5.7170 c3        1 MOL     -0.284188
     75 O14         0.8570    8.5680    4.3370 oh        1 MOL     -0.637727
     76 H29         2.2340    6.0690    3.3230 hn        1 MOL      0.257613
     77 H30        -0.2750    7.2830    2.3660 h1        1 MOL      0.115828
     78 H31        -0.9100    7.6070    4.6770 h1        1 MOL      0.045775
     79 H32         1.7860    8.3800    4.1790 ho        1 MOL      0.391571
     80 H33         1.7050    6.3970    5.5600 hc        1 MOL      0.068092
     81 H34         0.7450    7.3210    6.5670 hc        1 MOL      0.068092
     82 H35         0.0400    5.8150    6.0360 hc        1 MOL      0.068092
     83 N9         -0.8220    4.2170    3.4350 n         1 MOL     -0.338376
     84 C26        -1.7590    3.1540    3.1990 c3        1 MOL      0.217500
     85 C27        -1.3280    2.0330    2.2110 c         1 MOL      0.414533
     86 O15        -0.2100    2.0110    1.7200 o         1 MOL     -0.472529
     87 C28        -2.3360    2.5770    4.5120 c3        1 MOL      0.055150
     88 C29        -1.2070    2.2570    5.5970 c3        1 MOL     -0.031498
     89 C30        -3.2780    3.5160    5.2400 c3        1 MOL     -0.319171
     90 C31        -0.3330    1.1070    5.1300 c3        1 MOL     -0.170785
     91 H36         0.0750    3.9390    3.7920 hn        1 MOL      0.249917
     92 H37        -2.6380    3.5700    2.7010 h1        1 MOL      0.030849
     93 H38        -2.8600    1.6560    4.2250 hc        1 MOL      0.022360
     94 H39        -1.7480    2.0150    6.5060 hc        1 MOL      0.010879
     95 H40        -0.6730    3.2040    5.7200 hc        1 MOL      0.010879
     96 H41        -3.8800    4.0390    4.4870 hc        1 MOL      0.071225
     97 H42        -3.8640    2.9830    5.9910 hc        1 MOL      0.071225
     98 H43        -2.7660    4.3210    5.7600 hc        1 MOL      0.071225
     99 H44         0.4930    1.5660    4.5760 hc        1 MOL      0.058864
    100 H45         0.0190    0.5470    5.9880 hc        1 MOL      0.058864
    101 H46        -0.9870    0.4590    4.5540 hc        1 MOL      0.058864
    102 N10        -2.2790    1.1120    1.9620 n         1 MOL     -0.471501
    103 C32        -2.1110    0.1380    0.8420 c3        1 MOL      0.308668
    104 C33        -3.3390   -0.0500   -0.0530 c         1 MOL      0.404683
    105 O16        -3.7340   -1.1980   -0.4680 o         1 MOL     -0.384192
    106 C34        -1.5590   -1.1780    1.4140 c3        1 MOL     -0.313485
    107 C35        -0.9080   -2.1770    0.4160 c         1 MOL      0.900717
    108 O17        -0.9570   -3.3800    0.6010 o         1 MOL     -0.792331
    109 O18        -0.2820   -1.7630   -0.5440 o         1 MOL     -0.792331
    110 H47        -3.1850    1.2100    2.4080 hn        1 MOL      0.255975
    111 H48        -1.4350    0.6560    0.1590 h1        1 MOL      0.068489
    112 H49        -2.4100   -1.6640    1.8920 hc        1 MOL      0.049805
    113 H50        -0.9230   -0.9710    2.2730 hc        1 MOL      0.049805
    114 N11        -4.1030    1.0010   -0.2780 n         1 MOL     -0.528820
    115 C36        -5.3120    0.9040   -1.1140 c3        1 MOL      0.499480
    116 C37        -6.3750   -0.0290   -0.5480 c         1 MOL      0.182876
    117 O19        -6.5670   -0.1080    0.6440 o         1 MOL     -0.548689
    118 C38        -5.8160    2.4210   -1.1710 c3        1 MOL     -0.396884
    119 C39        -7.1810    2.5900   -1.8410 ca        1 MOL      0.134804
    120 C40        -7.2290    2.8400   -3.1900 ca        1 MOL     -0.182795
    121 C41        -8.3260    2.2870   -1.1140 ca        1 MOL     -0.182795
    122 C42        -8.4880    2.9640   -3.8160 ca        1 MOL     -0.117214
    123 C43        -9.5660    2.4100   -1.6970 ca        1 MOL     -0.117214
    124 C44        -9.6560    2.7770   -3.0520 ca        1 MOL     -0.117677
    125 H51        -3.8950    1.8710    0.1980 hn        1 MOL      0.247655
    126 H52        -5.0510    0.5460   -2.1090 h1        1 MOL     -0.045740
    127 H53        -5.0370    2.9270   -1.7350 hc        1 MOL      0.128925
    128 H54        -5.8910    2.7500   -0.1360 hc        1 MOL      0.128925
    129 H55        -6.2510    2.9620   -3.6410 ha        1 MOL      0.136683
    130 H56        -8.2560    2.0790   -0.0590 ha        1 MOL      0.136683
    131 H57        -8.6290    3.1280   -4.8740 ha        1 MOL      0.114681
    132 H58       -10.4080    2.2100   -1.0590 ha        1 MOL      0.114681
    133 H59       -10.6260    2.8020   -3.5260 ha        1 MOL      0.103108
    134 N12        -7.0880   -0.7880   -1.3450 n         1 MOL      0.220192
    135 C45        -8.0200   -1.8400   -0.9980 c3        1 MOL     -0.072600
    136 C46        -7.4680   -2.9790   -0.1070 c         1 MOL      0.299807
    137 O20        -8.2250   -3.6390    0.5830 o         1 MOL     -0.480702
    138 C47        -8.6470   -2.3330   -2.3320 c3        1 MOL      0.028130
    139 C48        -8.2590   -1.2980   -3.4090 c3        1 MOL     -0.174636
    140 C49        -6.9450   -0.7200   -2.7980 c3        1 MOL      0.074868
    141 H60        -8.8360   -1.2870   -0.5450 h1        1 MOL      0.061675
    142 H61        -8.1050   -3.2360   -2.6070 hc        1 MOL      0.028165
    143 H62        -9.7240   -2.5450   -2.2910 hc        1 MOL      0.028165
    144 H63        -8.1050   -1.7670   -4.3810 hc        1 MOL      0.043474
    145 H64        -9.0130   -0.5170   -3.3880 hc        1 MOL      0.043474
    146 H65        -6.0840   -1.2960   -3.1290 h1        1 MOL      0.011805
    147 H66        -6.8270    0.3310   -3.0770 h1        1 MOL      0.011805
    148 N13        -6.0870   -3.1270   -0.0510 n         1 MOL      0.088422
    149 C50        -5.3860   -4.2760    0.5250 c3        1 MOL     -0.414089
    150 C51        -5.3730   -4.1130    2.0770 c         1 MOL      0.585887
    151 O21        -5.6860   -5.1140    2.7510 o         1 MOL     -0.549936
    152 C52        -4.0120   -4.4410   -0.0710 c3        1 MOL      0.396811
    153 C53        -3.8450   -4.4950   -1.5860 c3        1 MOL     -0.385830
    154 C54        -2.3560   -4.7310   -1.9310 c         1 MOL      0.913191
    155 O22        -1.7820   -3.8630   -2.5690 o         1 MOL     -0.829050
    156 O23        -1.6390   -5.6450   -1.5860 o         1 MOL     -0.829050
    157 H67        -5.5140   -2.4170   -0.4790 hn        1 MOL     -0.092581
    158 H68        -5.9620   -5.1940    0.3210 h1        1 MOL      0.137264
    159 H69        -3.5780   -5.3660    0.3070 hc        1 MOL     -0.053008
    160 H70        -3.3840   -3.6390    0.3320 hc        1 MOL     -0.053008
    161 H71        -4.2460   -3.5720   -2.0080 hc        1 MOL      0.065153
    162 H72        -4.4050   -5.3570   -1.9530 hc        1 MOL      0.065153
    163 N14        -5.0400   -2.9440    2.7130 n         1 MOL     -0.294653
    164 C55        -4.9900   -2.8530    4.1960 c3        1 MOL     -0.286345
    165 H73        -6.0060   -2.8360    4.5930 h1        1 MOL      0.116343
    166 H74        -4.4590   -3.7170    4.5960 h1        1 MOL      0.116343
    167 H75        -4.4710   -1.9400    4.4870 h1        1 MOL      0.116343
    168 H76        -4.7920   -2.1340    2.1600 hn        1 MOL      0.282802
    169 Ca1         0.5960   -4.2060   -1.2980 Ca        1 MOL      1.748186
    170 O24         0.8610   -5.4490   -3.7440 oh        1 MOL     -0.769379
    171 H77         1.5780   -5.1890   -4.3210 ho        1 MOL      0.386488
    172 H78         0.1220   -5.5980   -4.3380 ho        1 MOL      0.386488
    173 O25         0.2420   -5.6840    1.1350 oh        1 MOL     -0.769379
    174 H79        -0.4300   -5.1750    1.6040 ho        1 MOL      0.386488
    175 H80         0.7300   -6.1300    1.8200 ho        1 MOL      0.386488
    176 O26         2.2760   -6.3320   -1.0680 oh        1 MOL     -0.769379
    177 H81         2.0570   -7.2270   -0.8250 ho        1 MOL      0.386488
    178 H82         3.1380   -6.4020   -1.4820 ho        1 MOL      0.386488
    179 O27         2.5680   -3.7030    0.3510 oh        1 MOL     -0.769379
    180 H83         2.7030   -2.7640    0.5110 ho        1 MOL      0.386488
    181 H84         3.4540   -4.0420    0.1790 ho        1 MOL      0.386488
@<TRIPOS>BOND
     1    1    2 1   
     2    1    4 1   
     3    1    5 1   
     4    1    6 1   
     5    2    3 2   
     6    2    7 1   
     7    7    8 1   
     8    7   15 1   
     9    8    9 1   
    10    8   11 1   
    11    8   16 1   
    12    9   10 2   
    13    9   19 1   
    14   11   12 1   
    15   11   17 1   
    16   11   18 1   
    17   12   13 1   
    18   12   14 1   
    19   19   20 1   
    20   19   24 1   
    21   20   21 1   
    22   20   23 1   
    23   20   25 1   
    24   21   22 2   
    25   21   29 1   
    26   23   26 1   
    27   23   27 1   
    28   23   28 1   
    29   29   30 1   
    30   29   37 1   
    31   30   31 1   
    32   30   33 1   
    33   30   38 1   
    34   31   32 2   
    35   31   41 1   
    36   33   34 1   
    37   33   39 1   
    38   33   40 1   
    39   34   35 1   
    40   34   36 1   
    41   41   42 1   
    42   41   45 1   
    43   42   43 1   
    44   42   46 1   
    45   42   47 1   
    46   43   44 2   
    47   43   48 1   
    48   48   49 1   
    49   48   56 1   
    50   49   50 1   
    51   49   52 1   
    52   49   57 1   
    53   50   51 2   
    54   50   62 1   
    55   52   53 1   
    56   52   58 1   
    57   52   59 1   
    58   53   54 1   
    59   53   55 2   
    60   54   60 1   
    61   54   61 1   
    62   62   63 1   
    63   62   66 1   
    64   63   64 1   
    65   63   67 1   
    66   63   68 1   
    67   64   65 2   
    68   64   69 1   
    69   69   70 1   
    70   69   76 1   
    71   70   71 1   
    72   70   73 1   
    73   70   77 1   
    74   71   72 2   
    75   71   83 1   
    76   73   74 1   
    77   73   75 1   
    78   73   78 1   
    79   74   80 1   
    80   74   81 1   
    81   74   82 1   
    82   75   79 1   
    83   83   84 1   
    84   83   91 1   
    85   84   85 1   
    86   84   87 1   
    87   84   92 1   
    88   85   86 2   
    89   85  102 1   
    90   87   88 1   
    91   87   89 1   
    92   87   93 1   
    93   88   90 1   
    94   88   94 1   
    95   88   95 1   
    96   89   96 1   
    97   89   97 1   
    98   89   98 1   
    99   90   99 1   
   100   90  100 1   
   101   90  101 1   
   102  102  103 1   
   103  102  110 1   
   104  103  104 1   
   105  103  106 1   
   106  103  111 1   
   107  104  105 2   
   108  104  114 1   
   109  106  107 1   
   110  106  112 1   
   111  106  113 1   
   112  107  108 1   
   113  107  109 1   
   114  114  115 1   
   115  114  125 1   
   116  115  116 1   
   117  115  118 1   
   118  115  126 1   
   119  116  117 2   
   120  116  134 1   
   121  118  119 1   
   122  118  127 1   
   123  118  128 1   
   124  119  120 ar  
   125  119  121 ar  
   126  120  122 ar  
   127  120  129 1   
   128  121  123 ar  
   129  121  130 1   
   130  122  124 ar  
   131  122  131 1   
   132  123  124 ar  
   133  123  132 1   
   134  124  133 1   
   135  134  135 1   
   136  134  140 1   
   137  135  136 1   
   138  135  138 1   
   139  135  141 1   
   140  136  137 2   
   141  136  148 1   
   142  138  139 1   
   143  138  142 1   
   144  138  143 1   
   145  139  140 1   
   146  139  144 1   
   147  139  145 1   
   148  140  146 1   
   149  140  147 1   
   150  148  149 1   
   151  148  157 1   
   152  149  150 1   
   153  149  152 1   
   154  149  158 1   
   155  150  151 2   
   156  150  163 1   
   157  152  153 1   
   158  152  159 1   
   159  152  160 1   
   160  153  154 1   
   161  153  161 1   
   162  153  162 1   
   163  154  155 1   
   164  154  156 1   
   165  163  164 1   
   166  163  168 1   
   167  164  165 1   
   168  164  166 1   
   169  164  167 1   
   170  170  171 1   
   171  170  172 1   
   172  173  174 1   
   173  173  175 1   
   174  176  177 1   
   175  176  178 1   
   176  179  180 1   
   177  179  181 1   
@<TRIPOS>SUBSTRUCTURE
     1 MOL         1 TEMP              0 ****  ****    0 ROOT
