@<TRIPOS>MOLECULE
MOL
  175   173     1     0     0
SMALL
resp


@<TRIPOS>ATOM
      1 C1         -6.5310    8.0250    1.5860 c3        1 MOL     -0.386714
      2 C2         -7.3430    7.1660    0.6530 c         1 MOL      0.652656
      3 O1         -7.5330    7.5970   -0.5250 o         1 MOL     -0.603942
      4 H1         -7.0930    8.9260    1.8310 hc        1 MOL      0.094459
      5 H2         -6.3190    7.4700    2.5000 hc        1 MOL      0.094459
      6 H3         -5.5950    8.3020    1.1030 hc        1 MOL      0.094459
      7 N1         -7.7600    5.9760    0.9970 n         1 MOL     -0.529417
      8 C3         -8.5180    5.1600    0.1380 c3        1 MOL      0.252752
      9 C4         -7.5760    4.0410   -0.3250 c         1 MOL      0.631422
     10 O2         -7.8950    2.8740   -0.2160 o         1 MOL     -0.569507
     11 C5         -9.7370    4.6420    0.8110 c3        1 MOL     -0.088955
     12 C6        -10.6770    3.8970   -0.0790 c         1 MOL      0.684542
     13 O3        -11.5730    3.1950    0.5100 o         1 MOL     -0.732153
     14 O4        -10.7640    4.1580   -1.2940 o         1 MOL     -0.732153
     15 H4         -7.6070    5.6100    1.9250 hn        1 MOL      0.311920
     16 H5         -8.9000    5.7410   -0.7010 h1        1 MOL      0.015996
     17 H6        -10.2230    5.4320    1.3940 hc        1 MOL     -0.028330
     18 H7         -9.4420    3.9650    1.6100 hc        1 MOL     -0.028330
     19 N2         -6.4050    4.3420   -0.8090 n         1 MOL     -0.750945
     20 C7         -5.4190    3.3760   -1.2720 c3        1 MOL      0.465457
     21 C8         -4.7540    2.6910   -0.0430 c         1 MOL      0.453501
     22 O5         -4.3560    3.4040    0.9060 o         1 MOL     -0.540665
     23 C9         -4.3360    4.0650   -2.0560 c3        1 MOL     -0.474416
     24 H8         -6.1480    5.3150   -0.6930 hn        1 MOL      0.346641
     25 H9         -5.8430    2.5700   -1.8660 h1        1 MOL      0.010179
     26 H10        -4.6700    4.4390   -3.0220 hc        1 MOL      0.123243
     27 H11        -3.9730    4.9010   -1.4580 hc        1 MOL      0.123243
     28 H12        -3.5460    3.3680   -2.3330 hc        1 MOL      0.123243
     29 N3         -4.7370    1.3370    0.1330 n         1 MOL     -0.341070
     30 C10        -5.3790    0.3410   -0.7800 c3        1 MOL     -0.082138
     31 C11        -5.6200   -0.9950   -0.0910 c         1 MOL      0.498038
     32 O6         -4.8210   -1.4740    0.7680 o         1 MOL     -0.513787
     33 C12        -4.5750    0.1560   -1.9970 c3        1 MOL     -0.003355
     34 C13        -3.1560   -0.3380   -1.7740 c         1 MOL      0.574413
     35 O7         -2.2280    0.5040   -1.4120 o         1 MOL     -0.706018
     36 O8         -2.8270   -1.5550   -1.9830 o         1 MOL     -0.706018
     37 H13        -4.2340    0.9130    0.8900 hn        1 MOL      0.252707
     38 H14        -6.3400    0.7590   -1.0410 h1        1 MOL      0.071737
     39 H15        -4.4970    1.0150   -2.6660 hc        1 MOL      0.018507
     40 H16        -5.1610   -0.5560   -2.5680 hc        1 MOL      0.018507
     41 N4         -6.6720   -1.7060   -0.4400 n         1 MOL     -0.371091
     42 C14        -7.0350   -3.0860   -0.0620 c3        1 MOL      0.073246
     43 C15        -6.8450   -4.1160   -1.1680 c         1 MOL      0.463477
     44 O9         -7.9050   -4.5200   -1.7220 o         1 MOL     -0.552825
     45 H17        -7.2140   -1.2750   -1.1640 hn        1 MOL      0.304514
     46 H18        -8.0430   -3.0840    0.3560 h1        1 MOL      0.058572
     47 H19        -6.4150   -3.3980    0.7850 h1        1 MOL      0.058572
     48 N5         -5.6430   -4.5780   -1.6180 n         1 MOL     -0.438569
     49 C16        -4.2510   -4.3430   -1.1330 c3        1 MOL      0.033447
     50 C17        -3.9500   -5.0320    0.1610 c         1 MOL      0.512701
     51 O10        -3.7750   -6.2180    0.1450 o         1 MOL     -0.544187
     52 C18        -3.3130   -4.6930   -2.3350 c3        1 MOL      0.009139
     53 C19        -1.8970   -4.2850   -2.1550 c         1 MOL      0.538997
     54 N6         -1.0760   -4.5410   -3.1320 n         1 MOL     -0.777520
     55 O11        -1.5050   -3.8870   -1.0980 o         1 MOL     -0.462490
     56 H20        -5.7530   -5.2590   -2.3540 hn        1 MOL      0.292284
     57 H21        -4.0840   -3.2870   -0.9010 h1        1 MOL      0.033829
     58 H22        -3.6520   -4.3440   -3.3140 hc        1 MOL      0.019921
     59 H23        -3.2690   -5.7740   -2.4820 hc        1 MOL      0.019921
     60 H24        -1.3090   -5.3860   -3.6380 hn        1 MOL      0.358574
     61 H25        -0.1260   -4.2440   -2.9750 hn        1 MOL      0.358574
     62 N7         -3.8550   -4.2750    1.2580 n         1 MOL     -0.182712
     63 C20        -3.5030   -4.8530    2.5370 c3        1 MOL     -0.492441
     64 C21        -2.0000   -5.2330    2.5910 c         1 MOL      0.657410
     65 O12        -1.7070   -5.7740    3.6540 o         1 MOL     -0.593246
     66 H26        -3.9030   -3.2700    1.2010 hn        1 MOL      0.214879
     67 H27        -4.1760   -5.7040    2.6850 h1        1 MOL      0.185388
     68 H28        -3.6990   -4.0190    3.2090 h1        1 MOL      0.185388
     69 N8         -1.1110   -4.9600    1.6600 n         1 MOL     -0.242159
     70 C22         0.3390   -5.1400    1.8690 c3        1 MOL     -0.093642
     71 C23         1.1010   -3.8130    1.7340 c         1 MOL      0.476833
     72 O13         0.5600   -2.9260    1.0700 o         1 MOL     -0.599181
     73 C24         0.8220   -6.2500    0.9100 c3        1 MOL      0.298147
     74 C25         0.1920   -7.6310    1.1120 c3        1 MOL     -0.365285
     75 O14         0.4370   -5.9510   -0.4490 oh        1 MOL     -0.641293
     76 H29        -1.4370   -4.6910    0.7430 hn        1 MOL      0.227561
     77 H30         0.5360   -5.5270    2.8610 h1        1 MOL      0.066966
     78 H31         1.8910   -6.4590    0.9840 h1        1 MOL      0.014154
     79 H32         1.1590   -5.5250   -0.9260 ho        1 MOL      0.472242
     80 H33         0.0040   -7.8090    2.1700 hc        1 MOL      0.092279
     81 H34        -0.8450   -7.6990    0.7610 hc        1 MOL      0.092279
     82 H35         0.7930   -8.4410    0.7060 hc        1 MOL      0.092279
     83 N9          2.3380   -3.6810    2.2230 n         1 MOL     -0.407925
     84 C26         3.2610   -2.4950    2.2240 c3        1 MOL      0.341320
     85 C27         4.2090   -2.7620    1.0150 c         1 MOL      0.301233
     86 O15         5.1330   -3.4920    1.1850 o         1 MOL     -0.551052
     87 C28         3.9950   -2.4260    3.6140 c3        1 MOL      0.026096
     88 C29         5.2350   -1.4500    3.6280 c3        1 MOL      0.005548
     89 C30         3.0830   -2.1830    4.8190 c3        1 MOL     -0.289727
     90 C31         5.0790   -0.0370    3.1700 c3        1 MOL     -0.205012
     91 H36         2.6680   -4.5210    2.6760 hn        1 MOL      0.270915
     92 H37         2.7780   -1.5400    2.0360 h1        1 MOL      0.033344
     93 H38         4.3130   -3.4540    3.7550 hc        1 MOL     -0.016402
     94 H39         6.0340   -1.9150    3.0490 hc        1 MOL      0.011237
     95 H40         5.6700   -1.3840    4.6220 hc        1 MOL      0.011237
     96 H41         3.6190   -2.0530    5.7580 hc        1 MOL      0.069685
     97 H42         2.5470   -1.2460    4.6560 hc        1 MOL      0.069685
     98 H43         2.3490   -2.9920    4.8600 hc        1 MOL      0.069685
     99 H44         6.0010    0.5620    3.1840 hc        1 MOL      0.051903
    100 H45         4.6300    0.0400    2.1790 hc        1 MOL      0.051903
    101 H46         4.2330    0.2400    3.7950 hc        1 MOL      0.051903
    102 N10         3.7750   -2.2770   -0.0910 n         1 MOL     -0.182331
    103 C32         4.4810   -2.5540   -1.3650 c3        1 MOL      0.129390
    104 C33         5.6900   -1.6040   -1.6630 c         1 MOL      0.474679
    105 O16         6.3790   -1.8530   -2.6220 o         1 MOL     -0.538908
    106 C34         3.4940   -2.6970   -2.5090 c3        1 MOL     -0.449079
    107 C35         2.2460   -3.5170   -2.2500 c         1 MOL      0.930302
    108 O17         2.3260   -4.7260   -1.8400 o         1 MOL     -0.756361
    109 O18         1.1040   -3.0310   -2.5050 o         1 MOL     -0.756361
    110 H47         2.8650   -1.8550   -0.1420 hn        1 MOL      0.096176
    111 H48         4.8990   -3.5570   -1.2680 h1        1 MOL      0.085534
    112 H49         3.9990   -3.0860   -3.3890 hc        1 MOL      0.112482
    113 H50         3.2120   -1.6710   -2.7070 hc        1 MOL      0.112482
    114 N11         5.9470   -0.5720   -0.8640 n         1 MOL     -0.356329
    115 C36         6.9060    0.5620   -1.0390 c3        1 MOL      0.164756
    116 C37         6.3990    1.8920   -0.4170 c         1 MOL      0.259615
    117 O19         6.0170    1.8570    0.7520 o         1 MOL     -0.446937
    118 C38         8.2580    0.2370   -0.3900 c3        1 MOL     -0.424562
    119 C39         9.2870    1.2790   -0.7130 ca        1 MOL      0.163797
    120 C40         9.3660    2.4240    0.1240 ca        1 MOL     -0.157457
    121 C41        10.2390    1.0390   -1.7630 ca        1 MOL     -0.157457
    122 C42        10.3110    3.4260   -0.2810 ca        1 MOL     -0.144066
    123 C43        11.0660    2.0800   -2.2160 ca        1 MOL     -0.144066
    124 C44        11.1940    3.2270   -1.4330 ca        1 MOL     -0.086775
    125 H51         5.3470   -0.4230   -0.0620 hn        1 MOL      0.249634
    126 H52         7.0340    0.5890   -2.1230 h1        1 MOL      0.062328
    127 H53         8.4810   -0.7300   -0.8360 hc        1 MOL      0.161941
    128 H54         8.0670    0.1210    0.6740 hc        1 MOL      0.161941
    129 H55         8.6070    2.6040    0.8690 ha        1 MOL      0.133367
    130 H56        10.2030    0.1120   -2.3280 ha        1 MOL      0.133367
    131 H57        10.3940    4.3890    0.1970 ha        1 MOL      0.114989
    132 H58        11.8260    1.8510   -2.9480 ha        1 MOL      0.114989
    133 H59        11.9790    3.9470   -1.5750 ha        1 MOL      0.096033
    134 N12         6.4060    2.9870   -1.1960 n         1 MOL     -0.015945
    135 C45         6.3360    4.3470   -0.6310 c3        1 MOL      0.026314
    136 C46         4.9840    4.8120   -0.0420 c         1 MOL      0.446225
    137 O20         4.8790    5.8940    0.5150 o         1 MOL     -0.560578
    138 C47         6.9080    5.3790   -1.6380 c3        1 MOL     -0.139455
    139 C48         6.8860    4.5770   -2.9830 c3        1 MOL      0.145641
    140 C49         6.9270    3.1090   -2.5830 c3        1 MOL     -0.281490
    141 H60         7.0430    4.3610    0.2010 h1        1 MOL      0.078954
    142 H61         6.2820    6.2650   -1.7440 hc        1 MOL      0.058508
    143 H62         7.9300    5.6470   -1.3710 hc        1 MOL      0.058508
    144 H63         6.0450    4.9470   -3.5680 hc        1 MOL     -0.000438
    145 H64         7.7840    4.7960   -3.5540 hc        1 MOL     -0.000438
    146 H65         6.4120    2.4330   -3.2800 h1        1 MOL      0.107722
    147 H66         7.9920    2.8570   -2.5770 h1        1 MOL      0.107722
    148 N13         3.8970    4.0040    0.0790 n         1 MOL     -0.107798
    149 C50         2.6220    4.2630    0.6440 c3        1 MOL     -0.362865
    150 C51         2.5490    4.6470    2.1440 c         1 MOL      0.541025
    151 O21         1.4580    5.1030    2.6000 o         1 MOL     -0.518900
    152 C52         1.7130    3.0570    0.4360 c3        1 MOL     -0.092152
    153 C53         1.9640    1.7930    1.3120 c3        1 MOL      0.062149
    154 C54         1.1520    0.6670    0.8410 c         1 MOL      0.543829
    155 O22        -0.0730    0.8350    0.7760 o         1 MOL     -0.633566
    156 O23         1.7010   -0.3160    0.3230 o         1 MOL     -0.633566
    157 H67         3.8630    3.2480   -0.5850 hn        1 MOL      0.160494
    158 H68         2.2460    5.1310    0.1030 h1        1 MOL      0.167761
    159 H69         1.7690    2.7240   -0.5980 hc        1 MOL      0.092191
    160 H70         0.6630    3.2470    0.6680 hc        1 MOL      0.092191
    161 H71         1.8400    2.0610    2.3580 hc        1 MOL     -0.030213
    162 H72         2.9890    1.4290    1.2540 hc        1 MOL     -0.030213
    163 N14         3.6800    4.6080    2.8670 n         1 MOL     -0.146770
    164 C55         3.6930    5.0300    4.3030 c3        1 MOL     -0.250501
    165 H73         3.1850    5.9890    4.4040 h1        1 MOL      0.103425
    166 H74         3.1780    4.2830    4.9070 h1        1 MOL      0.103425
    167 H75         4.7230    5.1270    4.6440 h1        1 MOL      0.103425
    168 H76         4.4620    4.0900    2.4940 hn        1 MOL      0.181357
    169 Ca1        -0.4900   -1.5050   -0.8000 Ca        1 MOL      1.720236
    170 O24         0.2860    0.2620   -2.5770 oh        1 MOL     -0.879627
    171 H77         0.3770    0.1980   -3.5290 ho        1 MOL      0.415314
    172 H78        -0.4080    0.9050   -2.4380 ho        1 MOL      0.415314
    173 O25        -2.1910   -1.2860    1.2760 oh        1 MOL     -0.879627
    174 H79        -3.1470   -1.2830    1.2520 ho        1 MOL      0.415314
    175 H80        -1.9680   -0.6090    1.9080 ho        1 MOL      0.415314
@<TRIPOS>BOND
     1    1    2 1   
     2    1    4 1   
     3    1    5 1   
     4    1    6 1   
     5    2    3 2   
     6    2    7 1   
     7    7    8 1   
     8    7   15 1   
     9    8    9 1   
    10    8   11 1   
    11    8   16 1   
    12    9   10 2   
    13    9   19 1   
    14   11   12 1   
    15   11   17 1   
    16   11   18 1   
    17   12   13 1   
    18   12   14 1   
    19   19   20 1   
    20   19   24 1   
    21   20   21 1   
    22   20   23 1   
    23   20   25 1   
    24   21   22 2   
    25   21   29 1   
    26   23   26 1   
    27   23   27 1   
    28   23   28 1   
    29   29   30 1   
    30   29   37 1   
    31   30   31 1   
    32   30   33 1   
    33   30   38 1   
    34   31   32 2   
    35   31   41 1   
    36   33   34 1   
    37   33   39 1   
    38   33   40 1   
    39   34   35 1   
    40   34   36 1   
    41   41   42 1   
    42   41   45 1   
    43   42   43 1   
    44   42   46 1   
    45   42   47 1   
    46   43   44 2   
    47   43   48 1   
    48   48   49 1   
    49   48   56 1   
    50   49   50 1   
    51   49   52 1   
    52   49   57 1   
    53   50   51 2   
    54   50   62 1   
    55   52   53 1   
    56   52   58 1   
    57   52   59 1   
    58   53   54 1   
    59   53   55 2   
    60   54   60 1   
    61   54   61 1   
    62   62   63 1   
    63   62   66 1   
    64   63   64 1   
    65   63   67 1   
    66   63   68 1   
    67   64   65 2   
    68   64   69 1   
    69   69   70 1   
    70   69   76 1   
    71   70   71 1   
    72   70   73 1   
    73   70   77 1   
    74   71   72 2   
    75   71   83 1   
    76   73   74 1   
    77   73   75 1   
    78   73   78 1   
    79   74   80 1   
    80   74   81 1   
    81   74   82 1   
    82   75   79 1   
    83   83   84 1   
    84   83   91 1   
    85   84   85 1   
    86   84   87 1   
    87   84   92 1   
    88   85   86 2   
    89   85  102 1   
    90   87   88 1   
    91   87   89 1   
    92   87   93 1   
    93   88   90 1   
    94   88   94 1   
    95   88   95 1   
    96   89   96 1   
    97   89   97 1   
    98   89   98 1   
    99   90   99 1   
   100   90  100 1   
   101   90  101 1   
   102  102  103 1   
   103  102  110 1   
   104  103  104 1   
   105  103  106 1   
   106  103  111 1   
   107  104  105 2   
   108  104  114 1   
   109  106  107 1   
   110  106  112 1   
   111  106  113 1   
   112  107  108 1   
   113  107  109 1   
   114  114  115 1   
   115  114  125 1   
   116  115  116 1   
   117  115  118 1   
   118  115  126 1   
   119  116  117 2   
   120  116  134 1   
   121  118  119 1   
   122  118  127 1   
   123  118  128 1   
   124  119  120 ar  
   125  119  121 ar  
   126  120  122 ar  
   127  120  129 1   
   128  121  123 ar  
   129  121  130 1   
   130  122  124 ar  
   131  122  131 1   
   132  123  124 ar  
   133  123  132 1   
   134  124  133 1   
   135  134  135 1   
   136  134  140 1   
   137  135  136 1   
   138  135  138 1   
   139  135  141 1   
   140  136  137 2   
   141  136  148 1   
   142  138  139 1   
   143  138  142 1   
   144  138  143 1   
   145  139  140 1   
   146  139  144 1   
   147  139  145 1   
   148  140  146 1   
   149  140  147 1   
   150  148  149 1   
   151  148  157 1   
   152  149  150 1   
   153  149  152 1   
   154  149  158 1   
   155  150  151 2   
   156  150  163 1   
   157  152  153 1   
   158  152  159 1   
   159  152  160 1   
   160  153  154 1   
   161  153  161 1   
   162  153  162 1   
   163  154  155 1   
   164  154  156 1   
   165  163  164 1   
   166  163  168 1   
   167  164  165 1   
   168  164  166 1   
   169  164  167 1   
   170  170  171 1   
   171  170  172 1   
   172  173  174 1   
   173  173  175 1   
@<TRIPOS>SUBSTRUCTURE
     1 MOL         1 TEMP              0 ****  ****    0 ROOT
