@<TRIPOS>MOLECULE
MOL
  175   173     1     0     0
SMALL
resp


@<TRIPOS>ATOM
      1 C1         -5.7060    8.3700    1.2220 c3        1 MOL     -0.298584
      2 C2         -6.8890    7.5470    0.5980 c         1 MOL      0.696527
      3 O1         -7.3810    8.0290   -0.4610 o         1 MOL     -0.606242
      4 H1         -5.9660    8.6670    2.2380 hc        1 MOL      0.071672
      5 H2         -4.8060    7.7540    1.2450 hc        1 MOL      0.071672
      6 H3         -5.5230    9.2590    0.6190 hc        1 MOL      0.071672
      7 N1         -7.3040    6.4050    1.0810 n         1 MOL     -0.763427
      8 C3         -8.1430    5.4750    0.3870 c3        1 MOL      0.716622
      9 C4         -7.3390    4.2810   -0.3170 c         1 MOL      0.402971
     10 O2         -7.7490    3.1150   -0.3160 o         1 MOL     -0.487118
     11 C5         -9.4080    5.0280    1.1110 c3        1 MOL     -0.529158
     12 C6        -10.4200    4.2890    0.2090 c         1 MOL      0.786949
     13 O3        -10.4250    4.3480   -1.0020 o         1 MOL     -0.728117
     14 O4        -11.3390    3.6080    0.7490 o         1 MOL     -0.728117
     15 H4         -6.8730    6.1680    1.9680 hn        1 MOL      0.329331
     16 H5         -8.5620    5.9620   -0.4920 h1        1 MOL     -0.034674
     17 H6         -9.8290    5.9050    1.5870 hc        1 MOL      0.068488
     18 H7         -9.0710    4.2980    1.8520 hc        1 MOL      0.068488
     19 N2         -6.1550    4.5870   -0.9050 n         1 MOL     -0.741895
     20 C7         -5.2940    3.5750   -1.3770 c3        1 MOL      0.634176
     21 C8         -4.6610    2.8360   -0.1360 c         1 MOL      0.369110
     22 O5         -4.1220    3.4810    0.7460 o         1 MOL     -0.556620
     23 C9         -4.2160    4.1720   -2.3540 c3        1 MOL     -0.565335
     24 H8         -5.7970    5.5270   -0.7630 hn        1 MOL      0.330257
     25 H9         -5.8340    2.8540   -1.9860 h1        1 MOL      0.002386
     26 H10        -3.6060    4.8370   -1.7430 hc        1 MOL      0.144515
     27 H11        -3.6330    3.3060   -2.6640 hc        1 MOL      0.144515
     28 H12        -4.7350    4.5820   -3.2240 hc        1 MOL      0.144515
     29 N3         -4.6740    1.4950   -0.0450 n         1 MOL     -0.275676
     30 C10        -5.4510    0.5720   -0.8650 c3        1 MOL     -0.066708
     31 C11        -5.6850   -0.7260   -0.0570 c         1 MOL      0.442289
     32 O6         -4.8820   -1.0410    0.8330 o         1 MOL     -0.513759
     33 C12        -4.6950    0.2150   -2.1780 c3        1 MOL     -0.140369
     34 C13        -3.2780   -0.3000   -2.0800 c         1 MOL      0.808914
     35 O7         -2.7580   -1.1470   -2.8590 o         1 MOL     -0.778045
     36 O8         -2.5340    0.1820   -1.2520 o         1 MOL     -0.778045
     37 H13        -4.1470    1.2430    0.7730 hn        1 MOL      0.271533
     38 H14        -6.4190    1.0050   -1.1360 h1        1 MOL      0.063320
     39 H15        -4.6570    1.1490   -2.7390 hc        1 MOL      0.014715
     40 H16        -5.3630   -0.4050   -2.7750 hc        1 MOL      0.014715
     41 N4         -6.7680   -1.3640   -0.4230 n         1 MOL     -0.304858
     42 C14        -7.3920   -2.5300    0.2340 c3        1 MOL     -0.040497
     43 C15        -7.5240   -3.7370   -0.6510 c         1 MOL      0.433842
     44 O9         -8.6400   -4.1540   -1.0820 o         1 MOL     -0.544226
     45 H17        -7.3460   -0.9370   -1.1350 hn        1 MOL      0.313473
     46 H18        -8.3180   -2.2420    0.7180 h1        1 MOL      0.090452
     47 H19        -6.9750   -2.8150    1.1980 h1        1 MOL      0.090452
     48 N5         -6.4350   -4.3930   -1.0560 n         1 MOL     -0.383793
     49 C16        -5.0060   -4.0950   -0.8700 c3        1 MOL      0.090513
     50 C17        -4.4900   -4.7940    0.4100 c         1 MOL      0.423357
     51 O10        -4.2410   -6.0140    0.3770 o         1 MOL     -0.506287
     52 C18        -4.1570   -4.4980   -2.1490 c3        1 MOL     -0.072201
     53 C19        -2.6490   -4.2790   -1.9670 c         1 MOL      0.573287
     54 N6         -1.8220   -4.7450   -2.8450 n         1 MOL     -0.607752
     55 O11        -2.2150   -3.6110   -1.0080 o         1 MOL     -0.651507
     56 H20        -6.6150   -5.1710   -1.6710 hn        1 MOL      0.286826
     57 H21        -4.8540   -3.0230   -0.8270 h1        1 MOL      0.061541
     58 H22        -4.5100   -3.8760   -2.9620 hc        1 MOL      0.024877
     59 H23        -4.3080   -5.5630   -2.3280 hc        1 MOL      0.024877
     60 H24        -2.2290   -5.2950   -3.5830 hn        1 MOL      0.314507
     61 H25        -0.8600   -4.4360   -2.8900 hn        1 MOL      0.314507
     62 N7         -4.3760   -4.0600    1.5200 n         1 MOL     -0.271353
     63 C20        -3.9290   -4.6660    2.8020 c3        1 MOL     -0.275481
     64 C21        -2.4500   -5.0530    2.9100 c         1 MOL      0.553468
     65 O12        -2.0910   -5.8000    3.8150 o         1 MOL     -0.561094
     66 H26        -4.6300   -3.0800    1.5020 hn        1 MOL      0.258793
     67 H27        -4.4360   -5.6170    2.9570 h1        1 MOL      0.132752
     68 H28        -4.2200   -3.9500    3.5650 h1        1 MOL      0.132752
     69 N8         -1.5560   -4.5790    2.0390 n         1 MOL     -0.303907
     70 C22        -0.0980   -4.9600    1.9980 c3        1 MOL     -0.121689
     71 C23         0.8130   -3.7610    1.7080 c         1 MOL      0.473744
     72 O13         0.4270   -2.7960    1.1090 o         1 MOL     -0.573433
     73 C24         0.2140   -6.0380    0.9950 c3        1 MOL      0.410038
     74 C25        -0.5990   -7.2830    1.2540 c3        1 MOL     -0.536141
     75 O14        -0.0530   -5.5940   -0.2750 oh        1 MOL     -0.509148
     76 H29        -1.8160   -3.9800    1.2780 hn        1 MOL      0.347560
     77 H30         0.1710   -5.2920    2.9990 h1        1 MOL      0.059894
     78 H31         1.2850   -6.2220    0.9960 h1        1 MOL     -0.014741
     79 H32         0.5900   -4.9690   -0.6110 ho        1 MOL      0.277084
     80 H33        -0.3190   -7.9870    0.4770 hc        1 MOL      0.138753
     81 H34        -0.3860   -7.7760    2.2060 hc        1 MOL      0.138753
     82 H35        -1.6620   -7.1150    1.0980 hc        1 MOL      0.138753
     83 N9          2.0300   -3.8350    2.2000 n         1 MOL     -0.309850
     84 C26         3.1210   -2.8330    2.0620 c3        1 MOL      0.170868
     85 C27         4.0210   -3.1290    0.7890 c         1 MOL      0.316644
     86 O15         5.0420   -3.8550    0.8460 o         1 MOL     -0.562877
     87 C28         3.9090   -2.6000    3.4060 c3        1 MOL      0.244310
     88 C29         4.8690   -1.3810    3.2330 c3        1 MOL     -0.111389
     89 C30         2.9960   -2.3650    4.6440 c3        1 MOL     -0.459703
     90 C31         4.3210    0.0010    2.9920 c3        1 MOL      0.108782
     91 H36         2.2940   -4.7060    2.6260 hn        1 MOL      0.213560
     92 H37         2.6310   -1.8830    1.8430 h1        1 MOL      0.048398
     93 H38         4.5260   -3.4850    3.5800 hc        1 MOL     -0.032526
     94 H39         5.4780   -1.6740    2.3800 hc        1 MOL      0.013406
     95 H40         5.5510   -1.2820    4.0790 hc        1 MOL      0.013406
     96 H41         3.6200   -2.0870    5.4960 hc        1 MOL      0.108313
     97 H42         2.2160   -1.6760    4.3100 hc        1 MOL      0.108313
     98 H43         2.5200   -3.2910    4.9580 hc        1 MOL      0.108313
     99 H44         5.0520    0.8100    3.0440 hc        1 MOL     -0.039876
    100 H45         3.9480    0.0450    1.9730 hc        1 MOL     -0.039876
    101 H46         3.5100    0.1980    3.6920 hc        1 MOL     -0.039876
    102 N10         3.7390   -2.3880   -0.3060 n         1 MOL     -0.038469
    103 C32         4.2600   -2.5280   -1.7110 c3        1 MOL      0.335704
    104 C33         5.3740   -1.5590   -2.0830 c         1 MOL      0.398683
    105 O16         5.8030   -1.4040   -3.2710 o         1 MOL     -0.564872
    106 C34         3.1060   -2.7090   -2.7070 c3        1 MOL     -0.512626
    107 C35         2.0480   -3.7520   -2.1040 c         1 MOL      0.736314
    108 O17         2.4520   -4.9130   -1.7910 o         1 MOL     -0.639933
    109 O18         0.8730   -3.3390   -2.0290 o         1 MOL     -0.639933
    110 H47         2.9560   -1.7560   -0.2480 hn        1 MOL     -0.026166
    111 H48         4.7350   -3.5080   -1.6950 h1        1 MOL      0.022515
    112 H49         3.4480   -3.1860   -3.6280 hc        1 MOL      0.116886
    113 H50         2.5870   -1.7780   -2.9150 hc        1 MOL      0.116886
    114 N11         5.9390   -0.8550   -1.1160 n         1 MOL     -0.518237
    115 C36         6.9960    0.1270   -1.3060 c3        1 MOL      0.633840
    116 C37         6.7160    1.4460   -0.4330 c         1 MOL      0.179744
    117 O19         6.3560    1.3310    0.7180 o         1 MOL     -0.458669
    118 C38         8.4140   -0.4820   -1.0270 c3        1 MOL     -0.348383
    119 C39         9.5660    0.4970   -0.7250 ca        1 MOL      0.132191
    120 C40         9.9330    0.8290    0.6100 ca        1 MOL     -0.163052
    121 C41        10.3080    1.0440   -1.7720 ca        1 MOL     -0.163052
    122 C42        11.1120    1.6630    0.8840 ca        1 MOL     -0.109622
    123 C43        11.3950    1.9180   -1.5250 ca        1 MOL     -0.109622
    124 C44        11.7790    2.1800   -0.2330 ca        1 MOL     -0.146593
    125 H51         5.5930   -1.0440   -0.1790 hn        1 MOL      0.216024
    126 H52         7.0050    0.4550   -2.3410 h1        1 MOL     -0.048409
    127 H53         8.6390   -1.1170   -1.8870 hc        1 MOL      0.105011
    128 H54         8.3480   -1.1650   -0.1850 hc        1 MOL      0.105011
    129 H55         9.3960    0.3630    1.4270 ha        1 MOL      0.114178
    130 H56        10.0340    0.7830   -2.7860 ha        1 MOL      0.114178
    131 H57        11.3170    1.9310    1.9090 ha        1 MOL      0.112369
    132 H58        11.8810    2.4020   -2.3610 ha        1 MOL      0.112369
    133 H59        12.6290    2.7580    0.0990 ha        1 MOL      0.105716
    134 N12         6.9840    2.6540   -1.0340 n         1 MOL     -0.032680
    135 C45         6.9830    3.8630   -0.1890 c3        1 MOL      0.046980
    136 C46         5.5860    4.5220   -0.0190 c         1 MOL      0.450911
    137 O20         5.3550    5.7440   -0.1650 o         1 MOL     -0.477839
    138 C47         7.9640    4.7920   -0.8670 c3        1 MOL     -0.107838
    139 C48         7.7750    4.4350   -2.3760 c3        1 MOL      0.016542
    140 C49         7.3240    2.9920   -2.3640 c3        1 MOL     -0.128733
    141 H60         7.3830    3.7390    0.8160 h1        1 MOL      0.064409
    142 H61         7.6920    5.8330   -0.7190 hc        1 MOL      0.035132
    143 H62         8.9560    4.4760   -0.5680 hc        1 MOL      0.035132
    144 H63         7.0010    5.1030   -2.7650 hc        1 MOL      0.033947
    145 H64         8.6030    4.7120   -3.0290 hc        1 MOL      0.033947
    146 H65         6.5020    2.8100   -3.0490 h1        1 MOL      0.056322
    147 H66         8.0980    2.2960   -2.6780 h1        1 MOL      0.056322
    148 N13         4.5530    3.6600    0.3560 n         1 MOL     -0.384043
    149 C50         3.2060    4.0790    0.6780 c3        1 MOL     -0.175441
    150 C51         3.1950    4.9270    1.9900 c         1 MOL      0.502488
    151 O21         2.3100    5.7690    2.1470 o         1 MOL     -0.516898
    152 C52         2.3040    2.8780    0.9520 c3        1 MOL      0.116258
    153 C53         2.1190    2.0160   -0.2950 c3        1 MOL      0.077129
    154 C54         1.2680    0.7880   -0.0070 c         1 MOL      0.567258
    155 O22         1.6810   -0.4080   -0.2760 o         1 MOL     -0.662422
    156 O23         0.0210    0.8910    0.2210 o         1 MOL     -0.662422
    157 H67         4.7660    2.6790    0.4920 hn        1 MOL      0.241299
    158 H68         2.8580    4.6530   -0.1880 h1        1 MOL      0.144091
    159 H69         1.3470    3.2830    1.2760 hc        1 MOL     -0.002134
    160 H70         2.8140    2.2920    1.7070 hc        1 MOL     -0.002134
    161 H71         3.0890    1.7280   -0.7180 hc        1 MOL     -0.010591
    162 H72         1.5600    2.5890   -1.0310 hc        1 MOL     -0.010591
    163 N14         4.1600    4.7420    2.8970 n         1 MOL     -0.268497
    164 C55         4.3480    5.6500    4.0400 c3        1 MOL     -0.120102
    165 H73         3.5780    6.4210    4.0200 h1        1 MOL      0.071404
    166 H74         4.2720    5.0850    4.9690 h1        1 MOL      0.071404
    167 H75         5.3310    6.1160    3.9760 h1        1 MOL      0.071404
    168 H76         4.9290    4.0970    2.7920 hn        1 MOL      0.235696
    169 Ca1        -0.6040   -1.4900   -1.0000 Ca        1 MOL      1.786100
    170 O24        -2.1750   -1.4560    1.4550 oh        1 MOL     -0.874297
    171 H77        -3.0950   -1.2400    1.6110 ho        1 MOL      0.416063
    172 H78        -1.6870   -0.7730    1.9090 ho        1 MOL      0.416063
    173 O25         0.1310   -0.5860   -3.3260 oh        1 MOL     -0.874297
    174 H79        -0.4620   -0.8960   -4.0130 ho        1 MOL      0.416063
    175 H80         0.7830   -0.0610   -3.7940 ho        1 MOL      0.416063
@<TRIPOS>BOND
     1    1    2 1   
     2    1    4 1   
     3    1    5 1   
     4    1    6 1   
     5    2    3 2   
     6    2    7 1   
     7    7    8 1   
     8    7   15 1   
     9    8    9 1   
    10    8   11 1   
    11    8   16 1   
    12    9   10 2   
    13    9   19 1   
    14   11   12 1   
    15   11   17 1   
    16   11   18 1   
    17   12   13 1   
    18   12   14 1   
    19   19   20 1   
    20   19   24 1   
    21   20   21 1   
    22   20   23 1   
    23   20   25 1   
    24   21   22 2   
    25   21   29 1   
    26   23   26 1   
    27   23   27 1   
    28   23   28 1   
    29   29   30 1   
    30   29   37 1   
    31   30   31 1   
    32   30   33 1   
    33   30   38 1   
    34   31   32 2   
    35   31   41 1   
    36   33   34 1   
    37   33   39 1   
    38   33   40 1   
    39   34   35 1   
    40   34   36 1   
    41   41   42 1   
    42   41   45 1   
    43   42   43 1   
    44   42   46 1   
    45   42   47 1   
    46   43   44 2   
    47   43   48 1   
    48   48   49 1   
    49   48   56 1   
    50   49   50 1   
    51   49   52 1   
    52   49   57 1   
    53   50   51 2   
    54   50   62 1   
    55   52   53 1   
    56   52   58 1   
    57   52   59 1   
    58   53   54 1   
    59   53   55 2   
    60   54   60 1   
    61   54   61 1   
    62   62   63 1   
    63   62   66 1   
    64   63   64 1   
    65   63   67 1   
    66   63   68 1   
    67   64   65 2   
    68   64   69 1   
    69   69   70 1   
    70   69   76 1   
    71   70   71 1   
    72   70   73 1   
    73   70   77 1   
    74   71   72 2   
    75   71   83 1   
    76   73   74 1   
    77   73   75 1   
    78   73   78 1   
    79   74   80 1   
    80   74   81 1   
    81   74   82 1   
    82   75   79 1   
    83   83   84 1   
    84   83   91 1   
    85   84   85 1   
    86   84   87 1   
    87   84   92 1   
    88   85   86 2   
    89   85  102 1   
    90   87   88 1   
    91   87   89 1   
    92   87   93 1   
    93   88   90 1   
    94   88   94 1   
    95   88   95 1   
    96   89   96 1   
    97   89   97 1   
    98   89   98 1   
    99   90   99 1   
   100   90  100 1   
   101   90  101 1   
   102  102  103 1   
   103  102  110 1   
   104  103  104 1   
   105  103  106 1   
   106  103  111 1   
   107  104  105 2   
   108  104  114 1   
   109  106  107 1   
   110  106  112 1   
   111  106  113 1   
   112  107  108 1   
   113  107  109 1   
   114  114  115 1   
   115  114  125 1   
   116  115  116 1   
   117  115  118 1   
   118  115  126 1   
   119  116  117 2   
   120  116  134 1   
   121  118  119 1   
   122  118  127 1   
   123  118  128 1   
   124  119  120 ar  
   125  119  121 ar  
   126  120  122 ar  
   127  120  129 1   
   128  121  123 ar  
   129  121  130 1   
   130  122  124 ar  
   131  122  131 1   
   132  123  124 ar  
   133  123  132 1   
   134  124  133 1   
   135  134  135 1   
   136  134  140 1   
   137  135  136 1   
   138  135  138 1   
   139  135  141 1   
   140  136  137 2   
   141  136  148 1   
   142  138  139 1   
   143  138  142 1   
   144  138  143 1   
   145  139  140 1   
   146  139  144 1   
   147  139  145 1   
   148  140  146 1   
   149  140  147 1   
   150  148  149 1   
   151  148  157 1   
   152  149  150 1   
   153  149  152 1   
   154  149  158 1   
   155  150  151 2   
   156  150  163 1   
   157  152  153 1   
   158  152  159 1   
   159  152  160 1   
   160  153  154 1   
   161  153  161 1   
   162  153  162 1   
   163  154  155 1   
   164  154  156 1   
   165  163  164 1   
   166  163  168 1   
   167  164  165 1   
   168  164  166 1   
   169  164  167 1   
   170  170  171 1   
   171  170  172 1   
   172  173  174 1   
   173  173  175 1   
@<TRIPOS>SUBSTRUCTURE
     1 MOL         1 TEMP              0 ****  ****    0 ROOT
