@<TRIPOS>MOLECULE
MOL
  192   187     1     0     0
SMALL
resp


@<TRIPOS>ATOM
      1 C1         10.7970   -0.4690    1.3960 c3        1 MOL     -0.343766
      2 C2          9.3230   -0.1590    1.0600 c         1 MOL      0.586459
      3 O1          8.4490   -0.1630    1.9490 o         1 MOL     -0.577391
      4 H1         11.3400   -0.6900    0.4770 hc        1 MOL      0.092893
      5 H2         11.2490    0.3950    1.8850 hc        1 MOL      0.092893
      6 H3         10.8450   -1.3310    2.0620 hc        1 MOL      0.092893
      7 N1          9.0790   -0.1520   -0.3210 n         1 MOL     -0.515443
      8 C3          7.7980    0.1060   -0.9910 c3        1 MOL      0.204375
      9 C4          7.0510   -1.2060   -1.1100 c         1 MOL      0.420636
     10 O2          6.6890   -1.6850   -2.1990 o         1 MOL     -0.387261
     11 C5          7.8770    0.7050   -2.4250 c3        1 MOL     -0.164379
     12 C6          8.8210   -0.0490   -3.4140 c         1 MOL      0.601235
     13 O3          9.7560   -0.7320   -3.0000 o         1 MOL     -0.600553
     14 O4          8.5630    0.0780   -4.6510 o         1 MOL     -0.600553
     15 H4          9.9000   -0.5060   -0.7910 hn        1 MOL      0.267292
     16 H5          7.1860    0.8150   -0.4160 h1        1 MOL      0.057675
     17 H6          8.1770    1.7260   -2.1620 hc        1 MOL      0.044586
     18 H7          6.8600    0.7630   -2.8170 hc        1 MOL      0.044586
     19 N2          6.9490   -1.9420    0.0070 n         1 MOL     -0.327549
     20 C7          6.3470   -3.2670    0.0710 c3        1 MOL      0.021341
     21 C8          4.9790   -3.3750   -0.6140 c         1 MOL      0.478719
     22 O5          4.7800   -4.3380   -1.3020 o         1 MOL     -0.525192
     23 C9          6.2880   -3.7200    1.5110 c3        1 MOL     -0.059583
     24 C10         7.6460   -3.9090    2.1430 c3        1 MOL      0.001721
     25 C11         7.6580   -4.2750    3.6010 c3        1 MOL      0.025270
     26 C12         9.1590   -4.3930    3.8790 c3        1 MOL      0.034541
     27 N3          9.4700   -4.6440    5.3130 n4        1 MOL     -0.190606
     28 H8          7.3550   -1.5660    0.8540 hn        1 MOL      0.163523
     29 H9          7.0080   -3.9500   -0.4600 h1        1 MOL      0.079537
     30 H10         5.8290   -4.6960    1.5920 hc        1 MOL      0.037171
     31 H11         5.7410   -2.9830    2.1040 hc        1 MOL      0.037171
     32 H12         8.0350   -2.8880    2.1830 hc        1 MOL      0.037445
     33 H13         8.3450   -4.5360    1.5840 hc        1 MOL      0.037445
     34 H14         7.1370   -5.2110    3.7800 hc        1 MOL      0.010441
     35 H15         7.1350   -3.5110    4.1760 hc        1 MOL      0.010441
     36 H16         9.4610   -3.3900    3.5780 hx        1 MOL      0.060061
     37 H17         9.5850   -5.1350    3.1990 hx        1 MOL      0.060061
     38 H18        10.4170   -4.4280    5.6010 hn        1 MOL      0.226465
     39 H19         8.9170   -4.0910    5.9660 hn        1 MOL      0.226465
     40 H20         9.2190   -5.6030    5.5280 hn        1 MOL      0.226465
     41 N4          3.9650   -2.4890   -0.4560 n         1 MOL     -0.425992
     42 C13         3.8400   -1.3990    0.5580 c3        1 MOL      0.067387
     43 C14         4.0570   -0.0680   -0.1670 c         1 MOL      0.037827
     44 O6          4.2040   -0.0040   -1.4130 o         1 MOL     -0.346553
     45 C15         2.6130   -1.6670    1.4350 c3        1 MOL     -0.310632
     46 C16         1.2210   -1.4840    0.7300 c         1 MOL      0.727005
     47 O7          1.1260   -0.9170   -0.3470 o         1 MOL     -0.593505
     48 O8          0.2440   -2.0120    1.4070 o         1 MOL     -0.593505
     49 H21         3.2220   -2.5600   -1.1340 hn        1 MOL      0.370891
     50 H22         4.6990   -1.5570    1.2020 h1        1 MOL      0.125931
     51 H23         2.5320   -1.0460    2.3150 hc        1 MOL      0.073908
     52 H24         2.7180   -2.6890    1.7900 hc        1 MOL      0.073908
     53 N5          4.0420    1.0000    0.5950 n         1 MOL     -0.283176
     54 C17         4.0560    2.4080    0.0600 c3        1 MOL      0.029225
     55 C18         2.7470    2.7860   -0.6470 c         1 MOL      0.646646
     56 O9          1.6850    2.1180   -0.6000 o         1 MOL     -0.721947
     57 H25         3.9830    0.8220    1.5870 hn        1 MOL      0.269917
     58 H26         4.9410    2.5060   -0.5650 h1        1 MOL      0.043333
     59 H27         4.2310    3.0700    0.8980 h1        1 MOL      0.043333
     60 N6          2.7730    3.8000   -1.4160 n         1 MOL     -0.411859
     61 C19         1.6540    4.5700   -1.9570 c3        1 MOL      0.341745
     62 C20         1.9180    6.0360   -1.7030 c         1 MOL      0.582831
     63 O10         3.0580    6.3970   -1.5890 o         1 MOL     -0.550919
     64 C21         1.4830    4.1730   -3.5000 c3        1 MOL     -0.383206
     65 C22         1.0550    2.7230   -3.6980 c         1 MOL      0.636743
     66 O11         1.6080    1.9270   -4.5070 o         1 MOL     -0.606131
     67 O12         0.0490    2.2880   -3.0440 o         1 MOL     -0.606131
     68 H28         3.5930    4.3460   -1.1970 hn        1 MOL      0.227054
     69 H29         0.7280    4.2500   -1.4860 h1        1 MOL     -0.047470
     70 H30         2.4600    4.3710   -3.9520 hc        1 MOL      0.104522
     71 H31         0.8220    4.8930   -3.9900 hc        1 MOL      0.104522
     72 N7          0.9400    6.9440   -1.7560 n         1 MOL     -0.505461
     73 C23        -0.4360    6.8160   -2.0440 c3        1 MOL     -0.119233
     74 C24        -1.3190    6.4240   -0.7590 c         1 MOL      0.544329
     75 O13        -1.0850    6.7910    0.3590 o         1 MOL     -0.487086
     76 H32         1.1270    7.9240   -1.6320 hn        1 MOL      0.340764
     77 H33        -0.8400    6.1460   -2.7990 h1        1 MOL      0.096838
     78 H34        -0.7530    7.8150   -2.3390 h1        1 MOL      0.096838
     79 N8         -2.3300    5.5540   -0.9990 n         1 MOL     -0.504297
     80 C25        -3.0760    4.7720   -0.0310 c3        1 MOL     -0.029096
     81 C26        -2.1690    3.7190    0.6240 c         1 MOL      0.608520
     82 O14        -1.4580    3.0220   -0.1210 o         1 MOL     -0.676531
     83 C27        -4.4040    4.2060   -0.5490 c3        1 MOL      0.332711
     84 C28        -5.3950    5.2920   -1.0780 c3        1 MOL     -0.293276
     85 O15        -5.0170    3.3700    0.3390 oh        1 MOL     -0.605910
     86 H35        -2.4880    5.3890   -1.9860 hn        1 MOL      0.280306
     87 H36        -3.3910    5.5180    0.7010 h1        1 MOL      0.075200
     88 H37        -4.1440    3.4590   -1.2930 h1        1 MOL      0.076168
     89 H38        -5.2310    3.8650    1.1340 ho        1 MOL      0.380098
     90 H39        -5.6810    5.9410   -0.2550 hc        1 MOL      0.083637
     91 H40        -5.0030    5.8580   -1.9210 hc        1 MOL      0.083637
     92 H41        -6.2830    4.8280   -1.5180 hc        1 MOL      0.083637
     93 N9         -2.1380    3.6350    1.9820 n         1 MOL     -0.532609
     94 C29        -1.1720    2.8410    2.7420 c3        1 MOL      0.170291
     95 C30        -1.3050    1.3210    2.4390 c         1 MOL      0.357017
     96 O16        -0.7410    0.7880    1.4690 o         1 MOL     -0.442095
     97 C31         0.3120    3.3130    2.4470 c3        1 MOL      0.038454
     98 C32         0.5720    4.8310    2.8010 c3        1 MOL     -0.182004
     99 C33         1.3480    2.5360    3.2860 c3        1 MOL     -0.617891
    100 C34         1.9640    5.3380    2.4050 c3        1 MOL     -0.112963
    101 H42        -2.8680    4.0870    2.5140 hn        1 MOL      0.295860
    102 H43        -1.2360    3.0590    3.8100 h1        1 MOL      0.037878
    103 H44         0.4590    3.2710    1.3660 hc        1 MOL      0.246440
    104 H45         0.6240    4.9440    3.8870 hc        1 MOL      0.061169
    105 H46        -0.2530    5.3830    2.3670 hc        1 MOL      0.061169
    106 H47         1.5510    1.5890    2.7850 hc        1 MOL      0.170849
    107 H48         2.2910    3.0770    3.4320 hc        1 MOL      0.170849
    108 H49         0.8810    2.3600    4.2570 hc        1 MOL      0.170849
    109 H50         2.0220    6.4340    2.4300 hc        1 MOL      0.040318
    110 H51         2.7500    5.1270    3.1340 hc        1 MOL      0.040318
    111 H52         2.2330    5.0540    1.3880 hc        1 MOL      0.040318
    112 N10        -2.0930    0.5860    3.2850 n         1 MOL     -0.302305
    113 C35        -2.4730   -0.8550    3.1650 c3        1 MOL     -0.147408
    114 C36        -3.9840   -1.1220    3.2170 c         1 MOL      0.592548
    115 O17        -4.5130   -2.2330    3.2530 o         1 MOL     -0.561193
    116 C37        -1.6790   -1.7610    4.1830 c3        1 MOL      0.426948
    117 C38        -2.0140   -1.2870    5.6040 c3        1 MOL     -0.271095
    118 O18        -0.2850   -1.5510    4.0570 oh        1 MOL     -0.603357
    119 H53        -2.5280    1.1150    4.0250 hn        1 MOL      0.230091
    120 H54        -2.1540   -1.1610    2.1660 h1        1 MOL      0.107234
    121 H55        -1.9780   -2.7990    4.0340 h1        1 MOL      0.004978
    122 H56        -0.0360   -1.5510    3.1240 ho        1 MOL      0.309168
    123 H57        -1.7460   -0.2660    5.8520 hc        1 MOL      0.059559
    124 H58        -3.0660   -1.5240    5.7760 hc        1 MOL      0.059559
    125 H59        -1.4450   -1.9200    6.2820 hc        1 MOL      0.059559
    126 N11        -4.8460   -0.0730    3.0640 n         1 MOL     -0.421418
    127 C39        -6.3370   -0.1920    2.9140 c3        1 MOL     -0.027224
    128 C40        -6.7000   -0.8170    1.5120 c         1 MOL      0.484535
    129 O19        -7.1180   -0.0090    0.6830 o         1 MOL     -0.508947
    130 C41        -6.9530    1.1980    3.1070 c3        1 MOL      0.445043
    131 C42        -8.4620    1.1660    3.1980 c3        1 MOL     -0.555642
    132 O20        -6.4690    1.7620    4.2420 oh        1 MOL     -0.658902
    133 H60        -4.4540    0.8500    3.0080 hn        1 MOL      0.254399
    134 H61        -6.7610   -0.8050    3.7140 h1        1 MOL      0.073120
    135 H62        -6.6030    1.8010    2.2640 h1        1 MOL      0.015856
    136 H63        -7.1860    1.7750    4.8760 ho        1 MOL      0.410515
    137 H64        -8.8820    2.1770    3.1860 hc        1 MOL      0.142889
    138 H65        -8.8140    0.8140    2.2250 hc        1 MOL      0.142889
    139 H66        -8.8480    0.5860    4.0280 hc        1 MOL      0.142889
    140 N12        -6.6400   -2.1600    1.3160 n         1 MOL     -0.581509
    141 C43        -6.4350   -2.9290    0.0630 c3        1 MOL      0.342773
    142 C44        -5.2420   -2.4990   -0.7420 c         1 MOL      0.216269
    143 O21        -4.8860   -1.2980   -0.7310 o         1 MOL     -0.391699
    144 C45        -7.6900   -2.8680   -0.8160 c3        1 MOL     -0.154961
    145 C46        -8.8920   -3.3940   -0.0970 c3        1 MOL     -0.194214
    146 C47       -10.0580   -3.6970   -1.0470 c3        1 MOL      0.105340
    147 C48       -10.4860   -2.5680   -2.0020 c3        1 MOL     -0.012085
    148 N13       -11.8330   -2.8150   -2.5700 n4        1 MOL     -0.077339
    149 H67        -6.2750   -2.6180    2.1390 hn        1 MOL      0.313839
    150 H68        -6.2970   -3.9640    0.3710 h1        1 MOL      0.032982
    151 H69        -7.4970   -3.4790   -1.6980 hc        1 MOL      0.059709
    152 H70        -7.8020   -1.8520   -1.1680 hc        1 MOL      0.059709
    153 H71        -9.1690   -2.6520    0.6590 hc        1 MOL      0.080605
    154 H72        -8.5370   -4.2680    0.4570 hc        1 MOL      0.080605
    155 H73       -10.9630   -3.9380   -0.4950 hc        1 MOL     -0.002082
    156 H74        -9.8330   -4.5640   -1.6750 hc        1 MOL     -0.002082
    157 H75        -9.7890   -2.5870   -2.8450 hx        1 MOL      0.092739
    158 H76       -10.5240   -1.5800   -1.5410 hx        1 MOL      0.092739
    159 H77       -12.0230   -2.1620   -3.3310 hn        1 MOL      0.189448
    160 H78       -12.0600   -3.7300   -2.9460 hn        1 MOL      0.189448
    161 H79       -12.5690   -2.5690   -1.9210 hn        1 MOL      0.189448
    162 N14        -4.5610   -3.4190   -1.3320 n         1 MOL     -0.269642
    163 C49        -3.2440   -3.2160   -1.9970 c3        1 MOL      0.040366
    164 C50        -2.2410   -2.5990   -1.0680 c         1 MOL      0.633657
    165 O22        -1.7360   -1.4840   -1.3740 o         1 MOL     -0.740570
    166 C51        -2.7580   -4.4790   -2.6980 c3        1 MOL      0.178182
    167 C52        -3.5000   -4.6120   -4.0340 c3        1 MOL     -0.326123
    168 C53        -3.1920   -6.0080   -4.5670 c         1 MOL      0.676695
    169 O23        -3.7940   -7.0090   -4.1360 o         1 MOL     -0.632575
    170 O24        -2.2080   -6.1250   -5.3440 o         1 MOL     -0.632575
    171 H80        -4.8750   -4.3840   -1.3330 hn        1 MOL      0.232787
    172 H81        -3.2580   -2.4260   -2.7420 h1        1 MOL      0.064286
    173 H82        -3.0080   -5.3720   -2.1290 hc        1 MOL      0.022225
    174 H83        -1.6780   -4.5030   -2.7400 hc        1 MOL      0.022225
    175 H84        -3.1020   -3.8340   -4.6990 hc        1 MOL      0.050239
    176 H85        -4.5680   -4.4650   -3.9490 hc        1 MOL      0.050239
    177 N15        -1.8710   -3.1720    0.0910 n         1 MOL     -0.375738
    178 C54        -1.9800   -4.6090    0.4520 c3        1 MOL     -0.107221
    179 H86        -1.2290   -5.1780   -0.0940 h1        1 MOL      0.056242
    180 H87        -1.8190   -4.7280    1.5230 h1        1 MOL      0.056242
    181 H88        -2.9730   -4.9740    0.1900 h1        1 MOL      0.056242
    182 H89        -1.2000   -2.6930    0.6570 hn        1 MOL      0.296975
    183 Ca1        -0.6030    0.8110   -1.0950 Ca        1 MOL      1.722932
    184 O25        -2.3170    0.7860   -3.6630 oh        1 MOL     -0.843979
    185 H90        -2.8690    0.0930   -4.0090 ho        1 MOL      0.405606
    186 H91        -1.6010    0.8740   -4.2980 ho        1 MOL      0.405606
    187 O26         1.6210   -0.3300   -2.9640 oh        1 MOL     -0.843979
    188 H92         2.2080   -0.3440   -2.2070 ho        1 MOL      0.405606
    189 H93         1.8190    0.4850   -3.4080 ho        1 MOL      0.405606
    190 O27        -3.2130    0.9410   -0.5110 oh        1 MOL     -0.843979
    191 H94        -3.8600    1.6370   -0.4130 ho        1 MOL      0.405606
    192 H95        -3.7250    0.1590   -0.6580 ho        1 MOL      0.405606
@<TRIPOS>BOND
     1    1    2 1   
     2    1    4 1   
     3    1    5 1   
     4    1    6 1   
     5    2    3 2   
     6    2    7 1   
     7    7    8 1   
     8    7   15 1   
     9    8    9 1   
    10    8   11 1   
    11    8   16 1   
    12    9   10 2   
    13    9   19 1   
    14   11   12 1   
    15   11   17 1   
    16   11   18 1   
    17   12   13 1   
    18   12   14 1   
    19   19   20 1   
    20   19   28 1   
    21   20   21 1   
    22   20   23 1   
    23   20   29 1   
    24   21   22 2   
    25   21   41 1   
    26   23   24 1   
    27   23   30 1   
    28   23   31 1   
    29   24   25 1   
    30   24   32 1   
    31   24   33 1   
    32   25   26 1   
    33   25   34 1   
    34   25   35 1   
    35   26   27 1   
    36   26   36 1   
    37   26   37 1   
    38   27   38 1   
    39   27   39 1   
    40   27   40 1   
    41   41   42 1   
    42   41   49 1   
    43   42   43 1   
    44   42   45 1   
    45   42   50 1   
    46   43   44 2   
    47   43   53 1   
    48   45   46 1   
    49   45   51 1   
    50   45   52 1   
    51   46   47 1   
    52   46   48 1   
    53   53   54 1   
    54   53   57 1   
    55   54   55 1   
    56   54   58 1   
    57   54   59 1   
    58   55   56 2   
    59   55   60 1   
    60   60   61 1   
    61   60   68 1   
    62   61   62 1   
    63   61   64 1   
    64   61   69 1   
    65   62   63 2   
    66   62   72 1   
    67   64   65 1   
    68   64   70 1   
    69   64   71 1   
    70   65   66 1   
    71   65   67 1   
    72   72   73 1   
    73   72   76 1   
    74   73   74 1   
    75   73   77 1   
    76   73   78 1   
    77   74   75 2   
    78   74   79 1   
    79   79   80 1   
    80   79   86 1   
    81   80   81 1   
    82   80   83 1   
    83   80   87 1   
    84   81   82 2   
    85   81   93 1   
    86   83   84 1   
    87   83   85 1   
    88   83   88 1   
    89   84   90 1   
    90   84   91 1   
    91   84   92 1   
    92   85   89 1   
    93   93   94 1   
    94   93  101 1   
    95   94   95 1   
    96   94   97 1   
    97   94  102 1   
    98   95   96 2   
    99   95  112 1   
   100   97   98 1   
   101   97   99 1   
   102   97  103 1   
   103   98  100 1   
   104   98  104 1   
   105   98  105 1   
   106   99  106 1   
   107   99  107 1   
   108   99  108 1   
   109  100  109 1   
   110  100  110 1   
   111  100  111 1   
   112  112  113 1   
   113  112  119 1   
   114  113  114 1   
   115  113  116 1   
   116  113  120 1   
   117  114  115 2   
   118  114  126 1   
   119  116  117 1   
   120  116  118 1   
   121  116  121 1   
   122  117  123 1   
   123  117  124 1   
   124  117  125 1   
   125  118  122 1   
   126  126  127 1   
   127  126  133 1   
   128  127  128 1   
   129  127  130 1   
   130  127  134 1   
   131  128  129 2   
   132  128  140 1   
   133  130  131 1   
   134  130  132 1   
   135  130  135 1   
   136  131  137 1   
   137  131  138 1   
   138  131  139 1   
   139  132  136 1   
   140  140  141 1   
   141  140  149 1   
   142  141  142 1   
   143  141  144 1   
   144  141  150 1   
   145  142  143 2   
   146  142  162 1   
   147  144  145 1   
   148  144  151 1   
   149  144  152 1   
   150  145  146 1   
   151  145  153 1   
   152  145  154 1   
   153  146  147 1   
   154  146  155 1   
   155  146  156 1   
   156  147  148 1   
   157  147  157 1   
   158  147  158 1   
   159  148  159 1   
   160  148  160 1   
   161  148  161 1   
   162  162  163 1   
   163  162  171 1   
   164  163  164 1   
   165  163  166 1   
   166  163  172 1   
   167  164  165 2   
   168  164  177 1   
   169  166  167 1   
   170  166  173 1   
   171  166  174 1   
   172  167  168 1   
   173  167  175 1   
   174  167  176 1   
   175  168  169 1   
   176  168  170 1   
   177  177  178 1   
   178  177  182 1   
   179  178  179 1   
   180  178  180 1   
   181  178  181 1   
   182  184  185 1   
   183  184  186 1   
   184  187  188 1   
   185  187  189 1   
   186  190  191 1   
   187  190  192 1   
@<TRIPOS>SUBSTRUCTURE
     1 MOL         1 TEMP              0 ****  ****    0 ROOT
