@<TRIPOS>MOLECULE
MOL
  189   185     1     0     0
SMALL
resp


@<TRIPOS>ATOM
      1 C1          4.4850    4.0070   -3.1980 c3        1 MOL     -0.484033
      2 C2          5.2750    3.1260   -2.2370 c         1 MOL      0.793358
      3 O1          4.8400    2.9330   -1.1030 o         1 MOL     -0.625564
      4 H1          3.5480    3.5130   -3.4550 hc        1 MOL      0.116081
      5 H2          4.2730    4.9640   -2.7230 hc        1 MOL      0.116081
      6 H3          5.0680    4.1710   -4.1040 hc        1 MOL      0.116081
      7 N1          6.4920    2.7450   -2.6640 n         1 MOL     -0.717745
      8 C3          7.2530    1.5980   -2.2090 c3        1 MOL      0.335215
      9 C4          6.4070    0.3350   -1.7610 c         1 MOL      0.132439
     10 O2          6.0290    0.1440   -0.5920 o         1 MOL     -0.404370
     11 C5          8.3280    1.9430   -1.1630 c3        1 MOL     -0.259827
     12 C6          7.9070    3.0040   -0.1320 c         1 MOL      0.810394
     13 O3          7.2210    2.5870    0.7940 o         1 MOL     -0.747598
     14 O4          8.2150    4.2020   -0.2940 o         1 MOL     -0.747598
     15 H4          6.9200    3.3270   -3.3720 hn        1 MOL      0.362401
     16 H5          7.8110    1.3610   -3.1230 h1        1 MOL      0.005703
     17 H6          9.2110    2.2850   -1.6970 hc        1 MOL      0.040914
     18 H7          8.6000    1.0280   -0.6340 hc        1 MOL      0.040914
     19 N2          6.0590   -0.4680   -2.7470 n         1 MOL     -0.173184
     20 C7          5.1320   -1.6090   -2.7510 c3        1 MOL      0.044561
     21 C8          5.6600   -2.8070   -2.0340 c         1 MOL      0.345542
     22 O5          6.1400   -3.7570   -2.6570 o         1 MOL     -0.544099
     23 C9          3.6780   -1.1990   -2.4180 c3        1 MOL      0.066712
     24 C10         2.7690   -2.3570   -2.9890 c3        1 MOL      0.127855
     25 C11         3.2440    0.1990   -2.8110 c3        1 MOL     -0.138711
     26 C12         2.4110   -2.4270   -4.4590 c3        1 MOL     -0.306533
     27 H8          6.5450   -0.1710   -3.5740 hn        1 MOL      0.196148
     28 H9          5.0600   -1.9580   -3.7800 h1        1 MOL      0.026281
     29 H10         3.6230   -1.2270   -1.3310 hc        1 MOL     -0.030843
     30 H11         1.8260   -2.2860   -2.4560 hc        1 MOL      0.023328
     31 H12         3.2900   -3.2920   -2.7680 hc        1 MOL      0.023328
     32 H13         3.7080    0.9580   -2.1710 hc        1 MOL      0.025243
     33 H14         3.5700    0.5180   -3.8070 hc        1 MOL      0.025243
     34 H15         2.1670    0.2750   -2.7510 hc        1 MOL      0.025243
     35 H16         1.8230   -3.3290   -4.6460 hc        1 MOL      0.058545
     36 H17         1.8370   -1.5390   -4.7370 hc        1 MOL      0.058545
     37 H18         3.2890   -2.4720   -5.1040 hc        1 MOL      0.058545
     38 N3          5.8210   -2.7440   -0.7200 n         1 MOL     -0.046238
     39 C13         6.2520   -3.8490    0.1770 c3        1 MOL     -0.089517
     40 C14         5.3030   -5.0430    0.3480 c         1 MOL      0.627044
     41 O6          5.7580   -6.2150    0.3040 o         1 MOL     -0.603636
     42 C15         6.7530   -3.3890    1.5810 c3        1 MOL     -0.319437
     43 C16         7.9570   -2.3950    1.3490 c         1 MOL      0.887755
     44 O7          8.0490   -1.4310    2.0880 o         1 MOL     -0.741040
     45 O8          8.9350   -2.6940    0.6010 o         1 MOL     -0.741040
     46 H19         5.6350   -1.8260   -0.3330 hn        1 MOL      0.178834
     47 H20         7.0900   -4.2860   -0.3440 h1        1 MOL      0.069786
     48 H21         7.1420   -4.2520    2.1290 hc        1 MOL      0.081580
     49 H22         5.8910   -2.9570    2.0980 hc        1 MOL      0.081580
     50 N4          4.0030   -4.9020    0.4340 n         1 MOL     -0.556969
     51 C17         3.2200   -3.7160    0.8410 c3        1 MOL      0.243607
     52 C18         1.9610   -4.0440    1.6450 c         1 MOL      0.514241
     53 O9          1.3880   -5.1160    1.4830 o         1 MOL     -0.565436
     54 H23         3.4190   -5.7180    0.5050 hn        1 MOL      0.289821
     55 H24         2.7880   -3.2410   -0.0340 h1        1 MOL     -0.013902
     56 H25         3.8410   -2.9530    1.3140 h1        1 MOL     -0.013902
     57 N5          1.5310   -3.1650    2.5390 n         1 MOL     -0.495898
     58 C19         2.1340   -1.8700    2.9500 c3        1 MOL     -0.023559
     59 C20         2.3500   -0.8270    1.8210 c         1 MOL      0.394878
     60 O10         3.5050   -0.4500    1.6040 o         1 MOL     -0.655223
     61 C21         3.3780   -2.1510    3.8210 c3        1 MOL     -0.052132
     62 C22         3.9990   -0.8940    4.5430 c         1 MOL      0.646917
     63 O11         5.1290   -1.1930    4.9520 o         1 MOL     -0.674896
     64 O12         3.3760    0.1390    4.9390 o         1 MOL     -0.674896
     65 H26         0.7560   -3.4040    3.1300 hn        1 MOL      0.308753
     66 H27         1.4220   -1.3920    3.6320 h1        1 MOL      0.084585
     67 H28         4.1440   -2.7060    3.2810 hc        1 MOL      0.040627
     68 H29         3.1050   -2.8840    4.5690 hc        1 MOL      0.040627
     69 N6          1.3100   -0.4020    1.0850 n         1 MOL     -0.151370
     70 C23        -0.0850   -0.8730    1.2650 c3        1 MOL     -0.083709
     71 C24        -0.4400   -2.0720    0.4330 c         1 MOL      0.554437
     72 O13         0.2650   -2.4070   -0.5180 o         1 MOL     -0.509217
     73 H30         1.5210    0.2660    0.3680 hn        1 MOL      0.185094
     74 H31        -0.7730   -0.1240    0.8670 h1        1 MOL      0.047229
     75 H32        -0.3110   -1.0570    2.3180 h1        1 MOL      0.047229
     76 N7         -1.4600   -2.8250    0.8190 n         1 MOL     -0.491462
     77 C25        -1.9280   -4.0550    0.2390 c3        1 MOL      0.086985
     78 C26        -2.3970   -3.9150   -1.2630 c         1 MOL      0.502051
     79 O14        -2.4910   -4.9310   -1.9170 o         1 MOL     -0.493206
     80 C27        -2.9920   -4.7430    1.1540 c3        1 MOL     -0.029093
     81 C28        -4.3530   -4.1030    1.2610 c3        1 MOL     -0.104810
     82 C29        -5.4510   -4.6000    2.1760 c         1 MOL      0.787198
     83 N8         -6.4760   -3.8160    2.4420 n         1 MOL     -0.936507
     84 O15        -5.4280   -5.6640    2.7330 o         1 MOL     -0.594021
     85 H33        -1.9700   -2.4850    1.6270 hn        1 MOL      0.300682
     86 H34        -1.0320   -4.6720    0.2790 h1        1 MOL      0.095675
     87 H35        -2.4770   -4.8540    2.1060 hc        1 MOL      0.036162
     88 H36        -3.1060   -5.7050    0.6600 hc        1 MOL      0.036162
     89 H37        -4.7880   -3.9130    0.2840 hc        1 MOL      0.001234
     90 H38        -4.0370   -3.1690    1.7240 hc        1 MOL      0.001234
     91 H39        -6.5640   -2.8900    2.0650 hn        1 MOL      0.403306
     92 H40        -7.2000   -4.1600    3.0680 hn        1 MOL      0.403306
     93 N9         -2.9170   -2.7170   -1.7310 n         1 MOL     -0.391915
     94 C30        -3.4060   -2.5140   -3.1440 c3        1 MOL     -0.039541
     95 C31        -4.8080   -1.9780   -3.2750 c         1 MOL      0.386068
     96 O16        -5.3040   -1.7570   -4.3710 o         1 MOL     -0.547690
     97 C32        -2.5560   -1.6320   -4.0040 c3        1 MOL      0.223274
     98 C33        -1.4040   -2.2920   -4.7450 c3        1 MOL     -0.441719
     99 C34        -1.9250   -0.4530   -3.2060 c3        1 MOL     -0.441719
    100 H41        -2.8680   -1.8610   -1.2080 hn        1 MOL      0.229639
    101 H42        -3.4370   -3.5220   -3.5640 h1        1 MOL      0.125981
    102 H43        -3.0760   -1.1550   -4.8370 hc        1 MOL      0.043146
    103 H44        -0.6950   -2.7870   -4.0970 hc        1 MOL      0.116942
    104 H45        -1.8110   -3.0850   -5.3720 hc        1 MOL      0.116942
    105 H46        -0.9000   -1.5240   -5.3410 hc        1 MOL      0.116942
    106 H47        -1.1160   -0.7790   -2.5710 hc        1 MOL      0.116942
    107 H48        -1.3110    0.1550   -3.8690 hc        1 MOL      0.116942
    108 H49        -2.6350    0.1300   -2.6300 hc        1 MOL      0.116942
    109 N10        -5.5040   -1.7610   -2.1550 n         1 MOL     -0.141229
    110 C35        -6.8570   -1.1090   -2.1910 c3        1 MOL      0.007863
    111 C36        -6.9310    0.3280   -1.6720 c         1 MOL      0.593820
    112 O17        -7.8500    1.0750   -1.9720 o         1 MOL     -0.557166
    113 C37        -7.7910   -2.0240   -1.3980 c3        1 MOL     -0.159381
    114 C38        -7.7370   -3.5210   -1.6790 c         1 MOL      0.610203
    115 N11        -7.6720   -4.0180   -2.9090 n         1 MOL     -0.806698
    116 O18        -7.6110   -4.3160   -0.7900 o         1 MOL     -0.519158
    117 H50        -4.9890   -1.9110   -1.3030 hn        1 MOL      0.122058
    118 H51        -7.3290   -1.1140   -3.1720 h1        1 MOL      0.074359
    119 H52        -8.8210   -1.6570   -1.4140 hc        1 MOL      0.048601
    120 H53        -7.5230   -1.9590   -0.3430 hc        1 MOL      0.048601
    121 H54        -7.8420   -3.4360   -3.7140 hn        1 MOL      0.376277
    122 H55        -7.5020   -5.0030   -3.0720 hn        1 MOL      0.376277
    123 N12        -6.0040    0.6630   -0.7550 n         1 MOL     -0.584918
    124 C39        -6.0230    1.8660    0.0470 c3        1 MOL      0.458373
    125 C40        -4.6280    2.5590    0.0340 c         1 MOL      0.337922
    126 O19        -3.5750    1.9440   -0.1710 o         1 MOL     -0.460951
    127 C41        -6.5410    1.6500    1.4430 c3        1 MOL     -0.023057
    128 C42        -7.9490    1.1700    1.6100 ca        1 MOL      0.013450
    129 C43        -8.9930    2.0980    1.5240 ca        1 MOL     -0.099450
    130 C44        -8.1790   -0.0850    2.1960 ca        1 MOL     -0.099450
    131 C45       -10.2590    1.7930    1.9010 ca        1 MOL     -0.257975
    132 C46        -9.5080   -0.4300    2.6030 ca        1 MOL     -0.257975
    133 C47       -10.5860    0.5120    2.4930 ca        1 MOL      0.282599
    134 O20       -11.7970    0.0920    2.9110 oh        1 MOL     -0.464936
    135 H56        -5.3710   -0.0950   -0.5340 hn        1 MOL      0.261324
    136 H57        -6.6850    2.6130   -0.3770 h1        1 MOL     -0.017870
    137 H58        -6.4670    2.5550    2.0350 hc        1 MOL      0.010317
    138 H59        -5.8670    0.9310    1.9150 hc        1 MOL      0.010317
    139 H60        -8.8170    3.0730    1.0930 ha        1 MOL      0.095098
    140 H61        -7.3250   -0.7070    2.4280 ha        1 MOL      0.095098
    141 H62       -11.0710    2.4900    1.7490 ha        1 MOL      0.137597
    142 H63        -9.6390   -1.3680    3.1200 ha        1 MOL      0.137597
    143 H64       -12.4430    0.8090    2.8280 ho        1 MOL      0.364107
    144 N13        -4.6270    3.8910    0.3400 n         1 MOL     -0.635568
    145 C48        -3.5360    4.7340    0.9890 c3        1 MOL      0.190015
    146 C49        -2.3680    5.2890    0.0570 c         1 MOL      0.454722
    147 O21        -1.9940    6.4410    0.1640 o         1 MOL     -0.542866
    148 C50        -3.0490    3.9490    2.2310 c3        1 MOL      0.076431
    149 C51        -2.3390    5.0020    3.1950 c3        1 MOL     -0.372245
    150 C52        -1.7950    4.3640    4.4520 c         1 MOL      0.734259
    151 O22        -0.5960    4.5480    4.8060 o         1 MOL     -0.720983
    152 O23        -2.5460    3.5290    5.0470 o         1 MOL     -0.720983
    153 H65        -5.5180    4.3530    0.4340 hn        1 MOL      0.314947
    154 H66        -4.0420    5.6350    1.3370 h1        1 MOL      0.018083
    155 H67        -2.2960    3.2080    1.9620 hc        1 MOL      0.020332
    156 H68        -3.8500    3.3640    2.6720 hc        1 MOL      0.020332
    157 H69        -3.1590    5.6660    3.4590 hc        1 MOL      0.077783
    158 H70        -1.5220    5.5090    2.6790 hc        1 MOL      0.077783
    159 N14        -1.9970    4.4440   -0.8640 n         1 MOL     -0.404256
    160 C53        -0.7580    4.5940   -1.6030 c3        1 MOL     -0.055288
    161 C54        -0.9140    5.2970   -2.9740 c         1 MOL      0.477271
    162 O24        -0.0370    5.3110   -3.8820 o         1 MOL     -0.532912
    163 C55        -0.1460    3.2120   -1.7430 c3        1 MOL     -0.039363
    164 C56         0.1570    2.5130   -0.4020 c3        1 MOL      0.301105
    165 C57         1.4390    2.9540    0.2640 c         1 MOL      0.572555
    166 O25         1.4590    4.0660    0.8160 o         1 MOL     -0.632355
    167 O26         2.4610    2.2250    0.3630 o         1 MOL     -0.632355
    168 H71        -2.4420    3.5340   -0.8080 hn        1 MOL      0.269067
    169 H72        -0.0560    5.2500   -1.0930 h1        1 MOL      0.146863
    170 H73         0.7830    3.1860   -2.3100 hc        1 MOL     -0.000233
    171 H74        -0.8250    2.6120   -2.3500 hc        1 MOL     -0.000233
    172 H75         0.2800    1.4660   -0.6660 hc        1 MOL     -0.068285
    173 H76        -0.6770    2.6240    0.2950 hc        1 MOL     -0.068285
    174 N15        -2.1800    5.7250   -3.2190 n         1 MOL     -0.272825
    175 C58        -2.6750    6.5150   -4.3600 c3        1 MOL     -0.106007
    176 H77        -3.6440    6.1280   -4.6750 h1        1 MOL      0.061449
    177 H78        -2.7800    7.5580   -4.0610 h1        1 MOL      0.061449
    178 H79        -1.9690    6.4430   -5.1870 h1        1 MOL      0.061449
    179 H80        -2.8940    5.6220   -2.5140 hn        1 MOL      0.244590
    180 Ca1         4.8180    1.7880    1.2260 Ca        1 MOL      1.785056
    181 O27         4.1940    2.4470    3.6480 oh        1 MOL     -0.929628
    182 H81         3.7010    3.2540    3.8080 ho        1 MOL      0.442911
    183 H82         3.8850    1.8480    4.3240 ho        1 MOL      0.442911
    184 O28         4.3630    4.3780    1.2910 oh        1 MOL     -0.929628
    185 H83         4.7330    5.1280    0.8150 ho        1 MOL      0.442911
    186 H84         3.4560    4.3280    0.9890 ho        1 MOL      0.442911
    187 O29         6.2600    0.2480    2.8490 oh        1 MOL     -0.929628
    188 H85         6.9610   -0.3570    2.6030 ho        1 MOL      0.442911
    189 H86         6.0080   -0.0240    3.7340 ho        1 MOL      0.442911
@<TRIPOS>BOND
     1    1    2 1   
     2    1    4 1   
     3    1    5 1   
     4    1    6 1   
     5    2    3 2   
     6    2    7 1   
     7    7    8 1   
     8    7   15 1   
     9    8    9 1   
    10    8   11 1   
    11    8   16 1   
    12    9   10 2   
    13    9   19 1   
    14   11   12 1   
    15   11   17 1   
    16   11   18 1   
    17   12   13 1   
    18   12   14 1   
    19   19   20 1   
    20   19   27 1   
    21   20   21 1   
    22   20   23 1   
    23   20   28 1   
    24   21   22 2   
    25   21   38 1   
    26   23   24 1   
    27   23   25 1   
    28   23   29 1   
    29   24   26 1   
    30   24   30 1   
    31   24   31 1   
    32   25   32 1   
    33   25   33 1   
    34   25   34 1   
    35   26   35 1   
    36   26   36 1   
    37   26   37 1   
    38   38   39 1   
    39   38   46 1   
    40   39   40 1   
    41   39   42 1   
    42   39   47 1   
    43   40   41 2   
    44   40   50 1   
    45   42   43 1   
    46   42   48 1   
    47   42   49 1   
    48   43   44 1   
    49   43   45 1   
    50   50   51 1   
    51   50   54 1   
    52   51   52 1   
    53   51   55 1   
    54   51   56 1   
    55   52   53 2   
    56   52   57 1   
    57   57   58 1   
    58   57   65 1   
    59   58   59 1   
    60   58   61 1   
    61   58   66 1   
    62   59   60 2   
    63   59   69 1   
    64   61   62 1   
    65   61   67 1   
    66   61   68 1   
    67   62   63 1   
    68   62   64 1   
    69   69   70 1   
    70   69   73 1   
    71   70   71 1   
    72   70   74 1   
    73   70   75 1   
    74   71   72 2   
    75   71   76 1   
    76   76   77 1   
    77   76   85 1   
    78   77   78 1   
    79   77   80 1   
    80   77   86 1   
    81   78   79 2   
    82   78   93 1   
    83   80   81 1   
    84   80   87 1   
    85   80   88 1   
    86   81   82 1   
    87   81   89 1   
    88   81   90 1   
    89   82   83 1   
    90   82   84 2   
    91   83   91 1   
    92   83   92 1   
    93   93   94 1   
    94   93  100 1   
    95   94   95 1   
    96   94   97 1   
    97   94  101 1   
    98   95   96 2   
    99   95  109 1   
   100   97   98 1   
   101   97   99 1   
   102   97  102 1   
   103   98  103 1   
   104   98  104 1   
   105   98  105 1   
   106   99  106 1   
   107   99  107 1   
   108   99  108 1   
   109  109  110 1   
   110  109  117 1   
   111  110  111 1   
   112  110  113 1   
   113  110  118 1   
   114  111  112 2   
   115  111  123 1   
   116  113  114 1   
   117  113  119 1   
   118  113  120 1   
   119  114  115 1   
   120  114  116 2   
   121  115  121 1   
   122  115  122 1   
   123  123  124 1   
   124  123  135 1   
   125  124  125 1   
   126  124  127 1   
   127  124  136 1   
   128  125  126 2   
   129  125  144 1   
   130  127  128 1   
   131  127  137 1   
   132  127  138 1   
   133  128  129 ar  
   134  128  130 ar  
   135  129  131 ar  
   136  129  139 1   
   137  130  132 ar  
   138  130  140 1   
   139  131  133 ar  
   140  131  141 1   
   141  132  133 ar  
   142  132  142 1   
   143  133  134 1   
   144  134  143 1   
   145  144  145 1   
   146  144  153 1   
   147  145  146 1   
   148  145  148 1   
   149  145  154 1   
   150  146  147 2   
   151  146  159 1   
   152  148  149 1   
   153  148  155 1   
   154  148  156 1   
   155  149  150 1   
   156  149  157 1   
   157  149  158 1   
   158  150  151 1   
   159  150  152 1   
   160  159  160 1   
   161  159  168 1   
   162  160  161 1   
   163  160  163 1   
   164  160  169 1   
   165  161  162 2   
   166  161  174 1   
   167  163  164 1   
   168  163  170 1   
   169  163  171 1   
   170  164  165 1   
   171  164  172 1   
   172  164  173 1   
   173  165  166 1   
   174  165  167 1   
   175  174  175 1   
   176  174  179 1   
   177  175  176 1   
   178  175  177 1   
   179  175  178 1   
   180  181  182 1   
   181  181  183 1   
   182  184  185 1   
   183  184  186 1   
   184  187  188 1   
   185  187  189 1   
@<TRIPOS>SUBSTRUCTURE
     1 MOL         1 TEMP              0 ****  ****    0 ROOT
