@<TRIPOS>MOLECULE
MOL
  186   183     1     0     0
SMALL
resp


@<TRIPOS>ATOM
      1 C1        -11.7100    5.0500    3.9230 c3        1 MOL     -0.608389
      2 C2        -11.7450    4.0410    2.7180 c         1 MOL      0.615766
      3 O1        -12.5380    3.0790    2.6120 o         1 MOL     -0.588186
      4 H1        -11.3390    6.0140    3.5770 hc        1 MOL      0.164712
      5 H2        -12.7160    5.1710    4.3260 hc        1 MOL      0.164712
      6 H3        -11.0510    4.6650    4.7010 hc        1 MOL      0.164712
      7 N1        -11.0640    4.4620    1.6580 n         1 MOL      0.170114
      8 C3        -11.2000    3.7840    0.3260 c3        1 MOL     -1.029500
      9 C4        -10.0070    2.7950    0.1620 c         1 MOL      0.387111
     10 O2         -8.9400    2.9500    0.7340 o         1 MOL     -0.497376
     11 C5        -11.2980    4.8570   -0.8170 c3        1 MOL      0.619053
     12 C6        -10.2760    5.9260   -1.0100 c         1 MOL      0.532390
     13 O3         -9.3100    6.1210   -0.1920 o         1 MOL     -0.677387
     14 O4        -10.4540    6.6920   -2.0080 o         1 MOL     -0.677387
     15 H4        -10.5040    5.3020    1.7520 hn        1 MOL     -0.011210
     16 H5        -12.1170    3.2160    0.2130 h1        1 MOL      0.315151
     17 H6        -12.2480    5.3360   -0.5790 hc        1 MOL     -0.056662
     18 H7        -11.5990    4.4690   -1.7850 hc        1 MOL     -0.056662
     19 N2        -10.3540    1.6560   -0.3720 n         1 MOL     -0.095647
     20 C7         -9.6950    0.3110   -0.3950 c3        1 MOL      0.035527
     21 C8         -8.3820    0.2720   -1.0990 c         1 MOL      0.367233
     22 O5         -8.2300   -0.4860   -2.0660 o         1 MOL     -0.551174
     23 C9        -10.6970   -0.8040   -0.8770 c3        1 MOL      0.081619
     24 C10       -11.8700   -0.8800    0.0730 c3        1 MOL      0.156945
     25 C11       -12.8800   -2.0240   -0.2860 c3        1 MOL     -0.215488
     26 C12       -12.4910   -3.4860   -0.5680 c3        1 MOL      0.064758
     27 N3        -11.7470   -4.2280    0.5140 n4        1 MOL     -0.346245
     28 H8        -11.1880    1.5580   -0.9360 hn        1 MOL      0.225636
     29 H9         -9.4280    0.0360    0.6300 h1        1 MOL      0.044882
     30 H10       -10.1880   -1.7650   -0.8530 hc        1 MOL      0.025309
     31 H11       -11.1460   -0.6020   -1.8430 hc        1 MOL      0.025309
     32 H12       -12.3880    0.0730    0.0780 hc        1 MOL     -0.051558
     33 H13       -11.4460   -1.1120    1.0570 hc        1 MOL     -0.051558
     34 H14       -13.4550   -1.6290   -1.1190 hc        1 MOL      0.083078
     35 H15       -13.5380   -2.0520    0.5880 hc        1 MOL      0.083078
     36 H16       -11.9230   -3.5160   -1.4900 hx        1 MOL      0.082537
     37 H17       -13.4410   -4.0150   -0.6870 hx        1 MOL      0.082537
     38 H18       -12.3230   -4.4470    1.3100 hn        1 MOL      0.330136
     39 H19       -11.4390   -5.1220    0.1570 hn        1 MOL      0.330136
     40 H20       -10.9630   -3.6520    0.7680 hn        1 MOL      0.330136
     41 N4         -7.4660    1.1740   -0.7550 n         1 MOL     -0.081762
     42 C13        -6.1680    1.3170   -1.4100 c3        1 MOL     -0.265074
     43 C14        -5.2130    1.9020   -0.3510 c         1 MOL      0.576945
     44 O6         -5.5480    2.7630    0.5310 o         1 MOL     -0.738192
     45 C15        -6.1790    2.2420   -2.5900 c3        1 MOL     -0.069065
     46 C16        -6.7120    3.6270   -2.4260 c         1 MOL      0.384819
     47 O7         -6.5180    4.4210   -3.3670 o         1 MOL     -0.591512
     48 O8         -7.5640    3.9930   -1.5430 o         1 MOL     -0.591512
     49 H21        -7.7360    1.8570   -0.0550 hn        1 MOL      0.158890
     50 H22        -5.7780    0.3250   -1.6040 h1        1 MOL      0.133538
     51 H23        -6.8940    1.8360   -3.3100 hc        1 MOL      0.119157
     52 H24        -5.2130    2.1840   -3.0870 hc        1 MOL      0.119157
     53 N5         -3.9540    1.4510   -0.2870 n         1 MOL     -0.334740
     54 C17        -3.3900    0.2190   -0.8000 c3        1 MOL     -0.195554
     55 C18        -4.0670   -1.1230   -0.2770 c         1 MOL      0.681377
     56 O9         -4.3660   -1.2110    0.9000 o         1 MOL     -0.561116
     57 H25        -3.3640    1.8380    0.4370 hn        1 MOL      0.307523
     58 H26        -2.3700    0.0930   -0.4170 h1        1 MOL      0.102518
     59 H27        -3.3480    0.1900   -1.8860 h1        1 MOL      0.102518
     60 N6         -4.3680   -2.0300   -1.1820 n         1 MOL     -0.629488
     61 C19        -4.8500   -3.3900   -0.8460 c3        1 MOL      0.390197
     62 C20        -3.8780   -4.5270   -1.2750 c         1 MOL      0.462682
     63 O10        -3.1310   -4.3910   -2.2520 o         1 MOL     -0.554421
     64 C21        -6.1940   -3.5850   -1.6640 c3        1 MOL     -0.196097
     65 C22        -6.9230   -4.7830   -1.1180 c         1 MOL      0.626168
     66 O11        -7.8120   -5.3620   -1.8040 o         1 MOL     -0.714547
     67 O12        -6.5820   -5.1870   -0.0190 o         1 MOL     -0.714547
     68 H28        -4.0720   -1.8940   -2.1350 hn        1 MOL      0.295484
     69 H29        -4.9630   -3.4810    0.2360 h1        1 MOL     -0.054588
     70 H30        -5.9210   -3.6990   -2.7170 hc        1 MOL      0.047551
     71 H31        -6.8610   -2.7240   -1.6630 hc        1 MOL      0.047551
     72 N7         -3.7810   -5.5850   -0.4510 n         1 MOL     -0.193144
     73 C23        -2.8970   -6.7520   -0.7240 c3        1 MOL     -0.290777
     74 C24        -1.4190   -6.5500   -0.4240 c         1 MOL      0.603515
     75 O13        -0.6220   -7.4420   -0.4400 o         1 MOL     -0.556625
     76 H32        -4.5280   -5.6490    0.2230 hn        1 MOL      0.243214
     77 H33        -2.9530   -6.9040   -1.7960 h1        1 MOL      0.143102
     78 H34        -3.2140   -7.6490   -0.1980 h1        1 MOL      0.143102
     79 N8         -1.0820   -5.3340    0.0730 n         1 MOL     -0.310383
     80 C25         0.2340   -4.9920    0.6100 c3        1 MOL     -0.018138
     81 C26         0.5940   -3.5440    0.3210 c         1 MOL      0.578592
     82 O14        -0.2560   -2.7210   -0.0080 o         1 MOL     -0.514481
     83 C27         0.3680   -5.3590    2.1370 c3        1 MOL      0.417701
     84 C28        -0.6560   -4.7960    2.9720 c3        1 MOL     -0.170388
     85 O15         0.3000   -6.7580    2.3170 oh        1 MOL     -0.603417
     86 H35        -1.7790   -4.6180    0.2230 hn        1 MOL      0.136282
     87 H36         1.0000   -5.5510    0.0760 h1        1 MOL      0.038622
     88 H37         1.3330   -5.0210    2.5140 h1        1 MOL     -0.070564
     89 H38         0.8130   -7.1410    1.5990 ho        1 MOL      0.367098
     90 H39        -1.6410   -5.1860    2.7560 hc        1 MOL      0.047054
     91 H40        -0.3430   -5.0670    3.9780 hc        1 MOL      0.047054
     92 H41        -0.6490   -3.7020    2.9360 hc        1 MOL      0.047054
     93 N9          1.9250   -3.2570    0.4160 n         1 MOL     -0.496327
     94 C29         2.5080   -1.8880    0.2370 c3        1 MOL      0.069641
     95 C30         3.8690   -2.0080   -0.5590 c         1 MOL      0.391163
     96 O16         3.9760   -1.3430   -1.6220 o         1 MOL     -0.495583
     97 C31         2.8350   -1.2290    1.6280 c3        1 MOL      0.060802
     98 C32         1.7380   -1.5680    2.6570 c3        1 MOL      0.018629
     99 C33         3.1350    0.2630    1.4930 c3        1 MOL     -0.364492
    100 C34         1.8000   -0.7830    3.9850 c3        1 MOL     -0.176785
    101 H42         2.5380   -4.0310    0.6350 hn        1 MOL      0.225924
    102 H43         1.7820   -1.2870   -0.3220 h1        1 MOL      0.094065
    103 H44         3.7200   -1.7080    2.0360 hc        1 MOL      0.009311
    104 H45         1.7580   -2.6240    2.9250 hc        1 MOL      0.028065
    105 H46         0.7510   -1.4670    2.1990 hc        1 MOL      0.028065
    106 H47         3.8970    0.4280    0.7280 hc        1 MOL      0.108425
    107 H48         2.2790    0.9150    1.2800 hc        1 MOL      0.108425
    108 H49         3.5470    0.4690    2.4840 hc        1 MOL      0.108425
    109 H50         1.0840   -1.2420    4.6660 hc        1 MOL      0.042054
    110 H51         2.7520   -0.9160    4.5020 hc        1 MOL      0.042054
    111 H52         1.6250    0.2870    3.8810 hc        1 MOL      0.042054
    112 N10         4.7570   -2.8210   -0.0410 n         1 MOL     -0.168865
    113 C35         6.1270   -3.1320   -0.5960 c3        1 MOL     -0.234869
    114 C36         7.2060   -3.1050    0.5070 c         1 MOL      0.527457
    115 O17         6.9820   -3.5900    1.6370 o         1 MOL     -0.533179
    116 C37         6.1340   -4.3730   -1.5290 c3        1 MOL      0.472014
    117 C38         5.0240   -4.3610   -2.4830 c3        1 MOL     -0.218715
    118 O18         7.3870   -4.5670   -2.2090 oh        1 MOL     -0.626292
    119 H53         4.5550   -3.2540    0.8470 hn        1 MOL      0.210836
    120 H54         6.3960   -2.2680   -1.2020 h1        1 MOL      0.122149
    121 H55         5.9530   -5.2360   -0.8910 h1        1 MOL     -0.041636
    122 H56         8.1300   -4.3570   -1.6360 ho        1 MOL      0.354727
    123 H57         4.9430   -3.3590   -2.8990 hc        1 MOL      0.067885
    124 H58         5.1880   -5.1250   -3.2420 hc        1 MOL      0.067885
    125 H59         4.1100   -4.6530   -1.9630 hc        1 MOL      0.067885
    126 N11         8.4010   -2.5100    0.3350 n         1 MOL     -0.420650
    127 C39         9.4660   -2.3630    1.3760 c3        1 MOL     -0.014034
    128 C40        10.1500   -1.0280    1.5200 c         1 MOL      0.722418
    129 O19        10.2370   -0.5610    2.6300 o         1 MOL     -0.575849
    130 C41        10.4800   -3.4760    1.2350 c3        1 MOL      0.232902
    131 C42        11.7590   -3.3080    1.9870 c3        1 MOL     -0.370259
    132 O20        10.8690   -3.7850   -0.0400 oh        1 MOL     -0.633815
    133 H60         8.5250   -2.1340   -0.5930 hn        1 MOL      0.252841
    134 H61         8.9970   -2.4300    2.3550 h1        1 MOL      0.115873
    135 H62         9.9650   -4.3840    1.5310 h1        1 MOL      0.045327
    136 H63        11.0830   -4.7160   -0.0570 ho        1 MOL      0.418352
    137 H64        12.2580   -4.2770    2.0170 hc        1 MOL      0.099705
    138 H65        12.4210   -2.5420    1.5860 hc        1 MOL      0.099705
    139 H66        11.4490   -3.1760    3.0300 hc        1 MOL      0.099705
    140 N12        10.4070   -0.3840    0.3960 n         1 MOL     -0.580003
    141 C43        11.0210    0.9870    0.3790 c3        1 MOL      0.187403
    142 C44        10.0910    1.9600   -0.3220 c         1 MOL      0.245659
    143 O21         9.2970    1.5960   -1.2300 o         1 MOL     -0.459977
    144 C45        12.3440    0.9130   -0.4030 c3        1 MOL     -0.265302
    145 C46        13.3120    2.0820   -0.0340 c3        1 MOL     -0.022513
    146 C47        14.5970    2.1470   -0.8550 c3        1 MOL     -0.053105
    147 C48        14.1310    2.4900   -2.2130 c3        1 MOL      0.160678
    148 N13        15.1860    3.1300   -3.0730 n4        1 MOL     -0.334191
    149 H67        10.2820   -0.8630   -0.4790 hn        1 MOL      0.334491
    150 H68        11.3020    1.2450    1.3980 h1        1 MOL      0.062996
    151 H69        12.2660    0.7520   -1.4780 hc        1 MOL      0.115539
    152 H70        12.8710    0.0100   -0.0690 hc        1 MOL      0.115539
    153 H71        13.6200    1.9310    1.0010 hc        1 MOL      0.033442
    154 H72        12.8130    3.0450   -0.1810 hc        1 MOL      0.033442
    155 H73        15.2240    1.2610   -0.7760 hc        1 MOL      0.038996
    156 H74        15.1900    3.0040   -0.5510 hc        1 MOL      0.038996
    157 H75        13.2920    3.1710   -2.0600 hx        1 MOL      0.023551
    158 H76        13.7650    1.5550   -2.6530 hx        1 MOL      0.023551
    159 H77        15.9290    2.4540   -3.1810 hn        1 MOL      0.306782
    160 H78        14.8630    3.3010   -4.0210 hn        1 MOL      0.306782
    161 H79        15.5810    3.9470   -2.6230 hn        1 MOL      0.306782
    162 N14        10.2030    3.1980    0.0240 n         1 MOL     -0.100100
    163 C49         9.5360    4.2880   -0.6460 c3        1 MOL      0.176178
    164 C50         8.0070    4.1380   -0.6080 c         1 MOL      0.291945
    165 O22         7.3470    3.9080   -1.6270 o         1 MOL     -0.503522
    166 C51         9.9950    5.6290   -0.0410 c3        1 MOL      0.026763
    167 C52        11.3930    5.9170   -0.6490 c3        1 MOL     -0.296172
    168 C53        12.2460    6.8900    0.1690 c         1 MOL      0.720186
    169 O23        13.3300    7.2620   -0.2990 o         1 MOL     -0.704717
    170 O24        11.8440    7.3040    1.2770 o         1 MOL     -0.704717
    171 H80        10.5800    3.3590    0.9440 hn        1 MOL      0.206381
    172 H81         9.7150    4.1720   -1.7230 h1        1 MOL      0.017676
    173 H82        10.1270    5.5890    1.0430 hc        1 MOL      0.033844
    174 H83         9.3140    6.4250   -0.3130 hc        1 MOL      0.033844
    175 H84        11.2930    6.1940   -1.6990 hc        1 MOL      0.043018
    176 H85        11.9430    4.9810   -0.6800 hc        1 MOL      0.043018
    177 N15         7.3390    3.9310    0.5320 n         1 MOL     -0.282622
    178 C54         7.6470    4.1410    1.9540 c3        1 MOL     -0.070255
    179 H86         7.6520    5.2100    2.1700 h1        1 MOL      0.051542
    180 H87         6.8900    3.6510    2.5660 h1        1 MOL      0.051542
    181 H88         8.6260    3.7210    2.1810 h1        1 MOL      0.051542
    182 H89         6.3790    3.7070    0.3190 hn        1 MOL      0.268275
    183 Ca1        -7.0380    5.0810    0.7190 Ca        1 MOL      1.711797
    184 O25        -7.5820    3.7260    3.1200 oh        1 MOL     -0.828910
    185 H90        -7.5310    3.7850    4.0650 ho        1 MOL      0.422012
    186 H91        -7.4700    2.7920    2.9320 ho        1 MOL      0.422012
@<TRIPOS>BOND
     1    1    2 1   
     2    1    4 1   
     3    1    5 1   
     4    1    6 1   
     5    2    3 2   
     6    2    7 1   
     7    7    8 1   
     8    7   15 1   
     9    8    9 1   
    10    8   11 1   
    11    8   16 1   
    12    9   10 2   
    13    9   19 1   
    14   11   12 1   
    15   11   17 1   
    16   11   18 1   
    17   12   13 1   
    18   12   14 1   
    19   19   20 1   
    20   19   28 1   
    21   20   21 1   
    22   20   23 1   
    23   20   29 1   
    24   21   22 2   
    25   21   41 1   
    26   23   24 1   
    27   23   30 1   
    28   23   31 1   
    29   24   25 1   
    30   24   32 1   
    31   24   33 1   
    32   25   26 1   
    33   25   34 1   
    34   25   35 1   
    35   26   27 1   
    36   26   36 1   
    37   26   37 1   
    38   27   38 1   
    39   27   39 1   
    40   27   40 1   
    41   41   42 1   
    42   41   49 1   
    43   42   43 1   
    44   42   45 1   
    45   42   50 1   
    46   43   44 2   
    47   43   53 1   
    48   45   46 1   
    49   45   51 1   
    50   45   52 1   
    51   46   47 1   
    52   46   48 1   
    53   53   54 1   
    54   53   57 1   
    55   54   55 1   
    56   54   58 1   
    57   54   59 1   
    58   55   56 2   
    59   55   60 1   
    60   60   61 1   
    61   60   68 1   
    62   61   62 1   
    63   61   64 1   
    64   61   69 1   
    65   62   63 2   
    66   62   72 1   
    67   64   65 1   
    68   64   70 1   
    69   64   71 1   
    70   65   66 1   
    71   65   67 1   
    72   72   73 1   
    73   72   76 1   
    74   73   74 1   
    75   73   77 1   
    76   73   78 1   
    77   74   75 2   
    78   74   79 1   
    79   79   80 1   
    80   79   86 1   
    81   80   81 1   
    82   80   83 1   
    83   80   87 1   
    84   81   82 2   
    85   81   93 1   
    86   83   84 1   
    87   83   85 1   
    88   83   88 1   
    89   84   90 1   
    90   84   91 1   
    91   84   92 1   
    92   85   89 1   
    93   93   94 1   
    94   93  101 1   
    95   94   95 1   
    96   94   97 1   
    97   94  102 1   
    98   95   96 2   
    99   95  112 1   
   100   97   98 1   
   101   97   99 1   
   102   97  103 1   
   103   98  100 1   
   104   98  104 1   
   105   98  105 1   
   106   99  106 1   
   107   99  107 1   
   108   99  108 1   
   109  100  109 1   
   110  100  110 1   
   111  100  111 1   
   112  112  113 1   
   113  112  119 1   
   114  113  114 1   
   115  113  116 1   
   116  113  120 1   
   117  114  115 2   
   118  114  126 1   
   119  116  117 1   
   120  116  118 1   
   121  116  121 1   
   122  117  123 1   
   123  117  124 1   
   124  117  125 1   
   125  118  122 1   
   126  126  127 1   
   127  126  133 1   
   128  127  128 1   
   129  127  130 1   
   130  127  134 1   
   131  128  129 2   
   132  128  140 1   
   133  130  131 1   
   134  130  132 1   
   135  130  135 1   
   136  131  137 1   
   137  131  138 1   
   138  131  139 1   
   139  132  136 1   
   140  140  141 1   
   141  140  149 1   
   142  141  142 1   
   143  141  144 1   
   144  141  150 1   
   145  142  143 2   
   146  142  162 1   
   147  144  145 1   
   148  144  151 1   
   149  144  152 1   
   150  145  146 1   
   151  145  153 1   
   152  145  154 1   
   153  146  147 1   
   154  146  155 1   
   155  146  156 1   
   156  147  148 1   
   157  147  157 1   
   158  147  158 1   
   159  148  159 1   
   160  148  160 1   
   161  148  161 1   
   162  162  163 1   
   163  162  171 1   
   164  163  164 1   
   165  163  166 1   
   166  163  172 1   
   167  164  165 2   
   168  164  177 1   
   169  166  167 1   
   170  166  173 1   
   171  166  174 1   
   172  167  168 1   
   173  167  175 1   
   174  167  176 1   
   175  168  169 1   
   176  168  170 1   
   177  177  178 1   
   178  177  182 1   
   179  178  179 1   
   180  178  180 1   
   181  178  181 1   
   182  184  185 1   
   183  184  186 1   
@<TRIPOS>SUBSTRUCTURE
     1 MOL         1 TEMP              0 ****  ****    0 ROOT
