@<TRIPOS>MOLECULE
MOL
  179   176     1     0     0
SMALL
resp


@<TRIPOS>ATOM
      1 C1          2.3060   -5.9980    5.1830 c3        1 MOL     -0.402020
      2 C2          2.2150   -5.2420    3.8150 c         1 MOL      0.735853
      3 O1          1.3060   -5.5190    3.0230 o         1 MOL     -0.613665
      4 H1          3.3230   -6.3620    5.3290 hc        1 MOL      0.112219
      5 H2          2.0440   -5.3180    5.9930 hc        1 MOL      0.112219
      6 H3          1.6160   -6.8420    5.1790 hc        1 MOL      0.112219
      7 N1          3.1800   -4.3830    3.5450 n         1 MOL     -0.582976
      8 C3          3.2350   -3.7110    2.2180 c3        1 MOL     -0.080047
      9 C4          3.7130   -4.6860    1.0660 c         1 MOL      0.698753
     10 O2          4.8010   -5.2160    1.1540 o         1 MOL     -0.554577
     11 C5          4.0480   -2.4120    2.3940 c3        1 MOL      0.073041
     12 C6          3.9280   -1.4210    1.2490 c         1 MOL      0.528023
     13 O3          4.1470   -0.1980    1.4930 o         1 MOL     -0.714367
     14 O4          3.5580   -1.7400    0.0990 o         1 MOL     -0.714367
     15 H4          3.6950   -3.9460    4.2900 hn        1 MOL      0.318577
     16 H5          2.2380   -3.3640    1.9230 h1        1 MOL      0.068241
     17 H6          5.1220   -2.6000    2.4910 hc        1 MOL      0.036350
     18 H7          3.7550   -1.9290    3.3230 hc        1 MOL      0.036350
     19 N2          2.8620   -4.7840    0.0910 n         1 MOL     -0.345115
     20 C7          3.1970   -5.3880   -1.1420 c3        1 MOL     -0.104759
     21 C8          4.3690   -4.7530   -1.9850 c         1 MOL      0.477765
     22 O5          4.9050   -5.4830   -2.8550 o         1 MOL     -0.544547
     23 C9          1.9350   -5.5490   -1.9820 c3        1 MOL      0.101418
     24 C10         1.2100   -4.3560   -2.4870 c3        1 MOL      0.010624
     25 C11        -0.1090   -4.7140   -3.1780 c3        1 MOL      0.017377
     26 C12        -1.0760   -3.5670   -3.3790 c3        1 MOL      0.083387
     27 N3         -0.7620   -2.9220   -4.6450 n4        1 MOL     -0.409694
     28 H8          1.9980   -4.2670    0.2130 hn        1 MOL      0.204309
     29 H9          3.4860   -6.4370   -1.0550 h1        1 MOL      0.119364
     30 H10         1.2230   -6.1200   -1.3810 hc        1 MOL     -0.010091
     31 H11         2.1260   -6.1990   -2.8330 hc        1 MOL     -0.010091
     32 H12         1.8100   -3.7700   -3.1710 hc        1 MOL     -0.003235
     33 H13         0.9230   -3.7210   -1.6540 hc        1 MOL     -0.003235
     34 H14        -0.6530   -5.3600   -2.4880 hc        1 MOL      0.022898
     35 H15         0.0620   -5.3850   -4.0180 hc        1 MOL      0.022898
     36 H16        -0.9900   -2.9360   -2.4890 hx        1 MOL      0.064357
     37 H17        -2.0950   -3.9650   -3.3450 hx        1 MOL      0.064357
     38 H18         0.1900   -2.6110   -4.6280 hn        1 MOL      0.282836
     39 H19        -0.7980   -3.5280   -5.4480 hn        1 MOL      0.282836
     40 H20        -1.3770   -2.1450   -4.8870 hn        1 MOL      0.282836
     41 N4          4.8000   -3.5470   -1.6110 n         1 MOL     -0.273765
     42 C13         5.9310   -2.9020   -2.2440 c3        1 MOL      0.011065
     43 C14         6.9300   -2.0700   -1.4250 c         1 MOL      0.431941
     44 O6          8.0690   -1.9670   -1.7730 o         1 MOL     -0.515540
     45 C15         5.3250   -2.1210   -3.3820 c3        1 MOL     -0.299113
     46 C16         4.5510   -0.9540   -2.8260 c         1 MOL      0.958102
     47 O7          3.3030   -1.0260   -2.7330 o         1 MOL     -0.909793
     48 O8          5.1750   -0.0270   -2.3380 o         1 MOL     -0.909793
     49 H21         4.1900   -3.1290   -0.9170 hn        1 MOL      0.220936
     50 H22         6.5460   -3.6960   -2.6650 h1        1 MOL      0.123728
     51 H23         4.7170   -2.7480   -4.0330 hc        1 MOL      0.084286
     52 H24         6.1120   -1.7070   -4.0100 hc        1 MOL      0.084286
     53 N5          6.5970   -1.7630   -0.1430 n         1 MOL      0.022803
     54 C17         7.5100   -1.1420    0.8280 c3        1 MOL     -0.377455
     55 C18         7.6730    0.3890    0.6670 c         1 MOL      0.589604
     56 O9          8.5630    1.0330    1.2890 o         1 MOL     -0.544720
     57 H25         5.6920   -2.0940    0.1560 hn        1 MOL     -0.029612
     58 H26         8.4470   -1.6540    0.6160 h1        1 MOL      0.160400
     59 H27         7.1430   -1.4630    1.8020 h1        1 MOL      0.160400
     60 N6          6.7680    1.0420   -0.0950 n         1 MOL     -0.351421
     61 C19         6.7560    2.4410   -0.4790 c3        1 MOL      0.100332
     62 C20         5.3370    3.1250   -0.5220 c         1 MOL      0.553079
     63 O10         4.3460    2.3720   -0.5010 o         1 MOL     -0.638060
     64 C21         7.4390    2.5750   -1.8750 c3        1 MOL     -0.563296
     65 C22         7.4630    4.0350   -2.3190 c         1 MOL      0.745841
     66 N7          6.8680    4.4220   -3.4300 n         1 MOL     -0.769370
     67 O11         8.1130    4.8680   -1.6820 o         1 MOL     -0.574083
     68 H28         6.0530    0.5800   -0.6410 hn        1 MOL      0.412791
     69 H29         7.3900    2.9980    0.2210 h1        1 MOL      0.052460
     70 H30         6.9650    1.8880   -2.5720 hc        1 MOL      0.204136
     71 H31         8.4870    2.3100   -1.7830 hc        1 MOL      0.204136
     72 H32         6.0870    3.8520   -3.7240 hn        1 MOL      0.347527
     73 H33         6.8660    5.4240   -3.5540 hn        1 MOL      0.347527
     74 N8          5.3130    4.4550   -0.4950 n         1 MOL     -0.317993
     75 C23         4.1250    5.3110   -0.3810 c3        1 MOL     -0.164312
     76 C24         3.1810    4.9750    0.7570 c         1 MOL      0.764178
     77 O12         3.6840    4.7140    1.7930 o         1 MOL     -0.529690
     78 H34         6.2000    4.9370   -0.5210 hn        1 MOL      0.275163
     79 H35         3.6130    5.2430   -1.3400 h1        1 MOL      0.078103
     80 H36         4.3710    6.3530   -0.1910 h1        1 MOL      0.078103
     81 N9          1.9120    4.8480    0.4910 n         1 MOL     -0.753378
     82 C25         0.9440    4.3560    1.5030 c3        1 MOL      0.399349
     83 C26         1.1060    2.8640    1.8140 c         1 MOL      0.338730
     84 O13         1.8560    2.1600    1.1300 o         1 MOL     -0.348160
     85 C27        -0.4650    4.6200    0.9650 c3        1 MOL     -0.278198
     86 C28        -0.8530    5.9970    0.5120 ca        1 MOL      0.120821
     87 C29        -1.0600    6.9940    1.4540 ca        1 MOL     -0.160012
     88 C30        -0.9220    6.2720   -0.8310 ca        1 MOL     -0.160012
     89 C31        -1.4270    8.2600    1.0260 ca        1 MOL     -0.247681
     90 C32        -1.3850    7.4940   -1.2700 ca        1 MOL     -0.247681
     91 C33        -1.6700    8.4870   -0.3170 ca        1 MOL      0.348696
     92 O14        -2.1250    9.7650   -0.6690 oh        1 MOL     -0.511898
     93 H37         1.5930    4.6470   -0.4400 hn        1 MOL      0.335747
     94 H38         1.1540    4.8830    2.4350 h1        1 MOL      0.034612
     95 H39        -1.1640    4.3560    1.7600 hc        1 MOL      0.068715
     96 H40        -0.6750    3.8370    0.2390 hc        1 MOL      0.068715
     97 H41        -0.9390    6.6910    2.4810 ha        1 MOL      0.115885
     98 H42        -0.7470    5.4830   -1.5630 ha        1 MOL      0.115885
     99 H43        -1.5610    8.9920    1.8070 ha        1 MOL      0.162563
    100 H44        -1.5220    7.6940   -2.3260 ha        1 MOL      0.162563
    101 H45        -2.2970   10.3150    0.0970 ho        1 MOL      0.380351
    102 N10         0.3500    2.3290    2.7810 n         1 MOL     -0.577707
    103 C34         0.2190    0.8910    3.1310 c3        1 MOL      0.019221
    104 C35        -0.0560   -0.1380    1.9810 c         1 MOL      0.660461
    105 O15         0.8320   -0.2610    1.1160 o         1 MOL     -0.575958
    106 C36         1.4960    0.3670    3.9040 c3        1 MOL      0.487980
    107 C37         1.3210   -1.0720    4.4320 c3        1 MOL     -0.413422
    108 C38         2.0650    1.2680    5.0370 c3        1 MOL     -0.234031
    109 C39         0.1950   -1.2450    5.4620 c3        1 MOL     -0.248886
    110 H46        -0.1570    2.9970    3.3350 hn        1 MOL      0.328179
    111 H47        -0.5520    0.7620    3.8900 h1        1 MOL      0.033180
    112 H48         2.3230    0.2600    3.1920 hc        1 MOL     -0.076371
    113 H49         2.2760   -1.3060    4.8980 hc        1 MOL      0.147154
    114 H50         1.1990   -1.7800    3.6100 hc        1 MOL      0.147154
    115 H51         2.8770    0.7790    5.5670 hc        1 MOL      0.053773
    116 H52         2.3790    2.2210    4.5980 hc        1 MOL      0.053773
    117 H53         1.2450    1.4700    5.7180 hc        1 MOL      0.053773
    118 H54         0.3690   -0.7080    6.3900 hc        1 MOL      0.072164
    119 H55        -0.7640   -0.9780    5.0110 hc        1 MOL      0.072164
    120 H56         0.0890   -2.2830    5.7810 hc        1 MOL      0.072164
    121 N11        -1.2810   -0.7060    1.8330 n         1 MOL     -0.670401
    122 C40        -1.5930   -1.7200    0.7710 c3        1 MOL      0.148617
    123 C41        -3.0510   -1.6400    0.1900 c         1 MOL      0.506152
    124 O16        -3.2570   -2.0940   -0.9780 o         1 MOL     -0.519809
    125 C42        -1.2490   -3.1370    1.2270 c3        1 MOL     -0.056677
    126 O17        -1.0110   -3.9540    0.1070 oh        1 MOL     -0.564933
    127 H57        -2.0470   -0.4480    2.4300 hn        1 MOL      0.331899
    128 H58        -0.9620   -1.4270   -0.0610 h1        1 MOL      0.169648
    129 H59        -2.1190   -3.5400    1.7270 h1        1 MOL      0.091738
    130 H60        -0.3930   -3.2220    1.8960 h1        1 MOL      0.091738
    131 H61        -0.9250   -4.8600    0.4320 ho        1 MOL      0.426178
    132 N12        -3.9830   -0.9470    0.8590 n         1 MOL     -0.511043
    133 C43        -5.3130   -0.6740    0.4120 c3        1 MOL      0.190627
    134 C44        -5.2490    0.1670   -0.8980 c         1 MOL      0.601583
    135 O18        -4.2260    0.7230   -1.2300 o         1 MOL     -0.566733
    136 C45        -6.0280    0.0430    1.5700 c3        1 MOL     -0.356558
    137 H62        -3.7290   -0.5000    1.7250 hn        1 MOL      0.274660
    138 H63        -5.7490   -1.6340    0.1370 h1        1 MOL      0.084752
    139 H64        -7.1180    0.0110    1.4720 hc        1 MOL      0.112289
    140 H65        -5.8460   -0.4480    2.5270 hc        1 MOL      0.112289
    141 H66        -5.8810    1.1230    1.5150 hc        1 MOL      0.112289
    142 N13        -6.3490    0.2960   -1.5870 n         1 MOL     -0.628185
    143 C46        -7.5980   -0.4860   -1.5110 c3        1 MOL      0.628068
    144 C47        -8.8750    0.2760   -1.9630 c         1 MOL      0.071735
    145 O19        -8.8850    1.1740   -2.8800 o         1 MOL     -0.483784
    146 C48        -7.3180   -1.6610   -2.3510 c3        1 MOL     -0.356684
    147 H67        -6.3430    1.1170   -2.1800 hn        1 MOL      0.313134
    148 H68        -7.8360   -0.7830   -0.4930 h1        1 MOL     -0.145942
    149 H69        -8.2390   -2.2370   -2.2900 hc        1 MOL      0.091758
    150 H70        -7.0990   -1.2380   -3.3330 hc        1 MOL      0.091758
    151 H71        -6.4800   -2.2600   -2.0010 hc        1 MOL      0.091758
    152 N14       -10.0410   -0.2140   -1.6440 n         1 MOL     -0.055326
    153 C49       -10.3510   -0.9700   -0.4210 c3        1 MOL     -0.419520
    154 C50       -10.2530   -0.1660    0.9340 c         1 MOL      0.754284
    155 O20        -9.9600   -0.7460    1.9360 o         1 MOL     -0.586487
    156 C51       -11.7140   -1.6640   -0.5110 c3        1 MOL     -0.004808
    157 C52       -12.7580   -0.6070   -0.6300 c3        1 MOL     -0.106060
    158 C53       -14.2020   -1.1330   -0.5780 c         1 MOL      0.675966
    159 O21       -14.8950   -0.9480    0.4780 o         1 MOL     -0.635004
    160 O22       -14.7450   -1.7130   -1.5280 o         1 MOL     -0.635004
    161 H72       -10.8520    0.1890   -2.1010 hn        1 MOL      0.261330
    162 H73        -9.6440   -1.8100   -0.3620 h1        1 MOL      0.154358
    163 H74       -11.9050   -2.2710    0.3750 hc        1 MOL      0.053095
    164 H75       -11.7560   -2.2830   -1.3960 hc        1 MOL      0.053095
    165 H76       -12.5710   -0.0880   -1.5660 hc        1 MOL     -0.013650
    166 H77       -12.6420    0.1480    0.1480 hc        1 MOL     -0.013650
    167 N15       -10.2160    1.1210    0.8560 n         1 MOL     -0.303123
    168 C54        -9.8750    2.1330    1.9230 c3        1 MOL     -0.208599
    169 H78       -10.7850    2.4390    2.4390 h1        1 MOL      0.105415
    170 H79        -9.1840    1.6880    2.6400 h1        1 MOL      0.105415
    171 H80        -9.4090    3.0040    1.4630 h1        1 MOL      0.105415
    172 H81       -10.5560    1.5530    0.0070 hn        1 MOL      0.258243
    173 Ca1         2.6240    0.5220   -0.7330 Ca        1 MOL      1.813060
    174 O23         1.0560    2.4600   -1.7560 oh        1 MOL     -0.876924
    175 O24         0.4410   -0.4450   -2.2580 oh        1 MOL     -0.876924
    176 H82         1.2150    3.3350   -2.1100 ho        1 MOL      0.418468
    177 H83        -0.4430   -0.3130   -2.6030 ho        1 MOL      0.418468
    178 H84         0.1230    2.2990   -1.9220 ho        1 MOL      0.418468
    179 H85         0.8530   -1.0430   -2.8920 ho        1 MOL      0.418468
@<TRIPOS>BOND
     1    1    2 1   
     2    1    4 1   
     3    1    5 1   
     4    1    6 1   
     5    2    3 2   
     6    2    7 1   
     7    7    8 1   
     8    7   15 1   
     9    8    9 1   
    10    8   11 1   
    11    8   16 1   
    12    9   10 2   
    13    9   19 1   
    14   11   12 1   
    15   11   17 1   
    16   11   18 1   
    17   12   13 1   
    18   12   14 1   
    19   19   20 1   
    20   19   28 1   
    21   20   21 1   
    22   20   23 1   
    23   20   29 1   
    24   21   22 2   
    25   21   41 1   
    26   23   24 1   
    27   23   30 1   
    28   23   31 1   
    29   24   25 1   
    30   24   32 1   
    31   24   33 1   
    32   25   26 1   
    33   25   34 1   
    34   25   35 1   
    35   26   27 1   
    36   26   36 1   
    37   26   37 1   
    38   27   38 1   
    39   27   39 1   
    40   27   40 1   
    41   41   42 1   
    42   41   49 1   
    43   42   43 1   
    44   42   45 1   
    45   42   50 1   
    46   43   44 2   
    47   43   53 1   
    48   45   46 1   
    49   45   51 1   
    50   45   52 1   
    51   46   47 1   
    52   46   48 1   
    53   53   54 1   
    54   53   57 1   
    55   54   55 1   
    56   54   58 1   
    57   54   59 1   
    58   55   56 2   
    59   55   60 1   
    60   60   61 1   
    61   60   68 1   
    62   61   62 1   
    63   61   64 1   
    64   61   69 1   
    65   62   63 2   
    66   62   74 1   
    67   64   65 1   
    68   64   70 1   
    69   64   71 1   
    70   65   66 1   
    71   65   67 2   
    72   66   72 1   
    73   66   73 1   
    74   74   75 1   
    75   74   78 1   
    76   75   76 1   
    77   75   79 1   
    78   75   80 1   
    79   76   77 2   
    80   76   81 1   
    81   81   82 1   
    82   81   93 1   
    83   82   83 1   
    84   82   85 1   
    85   82   94 1   
    86   83   84 2   
    87   83  102 1   
    88   85   86 1   
    89   85   95 1   
    90   85   96 1   
    91   86   87 ar  
    92   86   88 ar  
    93   87   89 ar  
    94   87   97 1   
    95   88   90 ar  
    96   88   98 1   
    97   89   91 ar  
    98   89   99 1   
    99   90   91 ar  
   100   90  100 1   
   101   91   92 1   
   102   92  101 1   
   103  102  103 1   
   104  102  110 1   
   105  103  104 1   
   106  103  106 1   
   107  103  111 1   
   108  104  105 2   
   109  104  121 1   
   110  106  107 1   
   111  106  108 1   
   112  106  112 1   
   113  107  109 1   
   114  107  113 1   
   115  107  114 1   
   116  108  115 1   
   117  108  116 1   
   118  108  117 1   
   119  109  118 1   
   120  109  119 1   
   121  109  120 1   
   122  121  122 1   
   123  121  127 1   
   124  122  123 1   
   125  122  125 1   
   126  122  128 1   
   127  123  124 2   
   128  123  132 1   
   129  125  126 1   
   130  125  129 1   
   131  125  130 1   
   132  126  131 1   
   133  132  133 1   
   134  132  137 1   
   135  133  134 1   
   136  133  136 1   
   137  133  138 1   
   138  134  135 2   
   139  134  142 1   
   140  136  139 1   
   141  136  140 1   
   142  136  141 1   
   143  142  143 1   
   144  142  147 1   
   145  143  144 1   
   146  143  146 1   
   147  143  148 1   
   148  144  145 2   
   149  144  152 1   
   150  146  149 1   
   151  146  150 1   
   152  146  151 1   
   153  152  153 1   
   154  152  161 1   
   155  153  154 1   
   156  153  156 1   
   157  153  162 1   
   158  154  155 2   
   159  154  167 1   
   160  156  157 1   
   161  156  163 1   
   162  156  164 1   
   163  157  158 1   
   164  157  165 1   
   165  157  166 1   
   166  158  159 1   
   167  158  160 1   
   168  167  168 1   
   169  167  172 1   
   170  168  169 1   
   171  168  170 1   
   172  168  171 1   
   173  174  176 1   
   174  174  178 1   
   175  175  177 1   
   176  175  179 1   
@<TRIPOS>SUBSTRUCTURE
     1 MOL         1 TEMP              0 ****  ****    0 ROOT
