@<TRIPOS>MOLECULE
MOL
  181   177     1     0     0
SMALL
resp


@<TRIPOS>ATOM
      1 C1          6.8660   -4.5290    5.4580 c3        1 MOL     -0.301523
      2 C2          6.1680   -3.4830    4.4720 c         1 MOL      0.612941
      3 O1          5.4910   -2.5790    4.9550 o         1 MOL     -0.545599
      4 H1          6.1590   -4.8240    6.2340 hc        1 MOL      0.068677
      5 H2          7.1750   -5.4090    4.8950 hc        1 MOL      0.068677
      6 H3          7.7390   -4.0670    5.9190 hc        1 MOL      0.068677
      7 N1          6.3590   -3.5610    3.1460 n         1 MOL     -0.263697
      8 C3          7.2910   -4.4150    2.3320 c3        1 MOL     -0.169822
      9 C4          6.5860   -4.9130    1.0210 c         1 MOL      0.582125
     10 O2          5.3930   -5.2570    1.1510 o         1 MOL     -0.493761
     11 C5          8.6060   -3.5940    2.0610 c3        1 MOL     -0.091595
     12 C6          8.2690   -2.2800    1.3880 c         1 MOL      0.507808
     13 O3          7.8960   -1.3440    2.1120 o         1 MOL     -0.668426
     14 O4          8.2000   -2.2090    0.1640 o         1 MOL     -0.668426
     15 H4          5.7290   -3.0050    2.5860 hn        1 MOL      0.228099
     16 H5          7.5440   -5.3230    2.8940 h1        1 MOL      0.115806
     17 H6          9.2930   -4.1350    1.4160 hc        1 MOL      0.028252
     18 H7          9.1130   -3.2990    2.9790 hc        1 MOL      0.028252
     19 N2          7.2060   -5.0620   -0.1740 n         1 MOL     -0.593788
     20 C7          6.6650   -5.3470   -1.5110 c3        1 MOL      0.446220
     21 C8          5.5260   -4.4910   -2.0290 c         1 MOL      0.307040
     22 O5          4.7550   -4.8890   -2.8680 o         1 MOL     -0.500859
     23 C9          6.4190   -6.8570   -1.5790 c3        1 MOL     -0.340597
     24 H8          8.1620   -4.7250   -0.1070 hn        1 MOL      0.311058
     25 H9          7.4620   -5.2170   -2.2420 h1        1 MOL     -0.019364
     26 H10         5.6180   -7.1960   -0.9080 hc        1 MOL      0.082156
     27 H11         6.1400   -7.0400   -2.6110 hc        1 MOL      0.082156
     28 H12         7.3210   -7.3690   -1.2550 hc        1 MOL      0.082156
     29 N3          5.4510   -3.2780   -1.4870 n         1 MOL     -0.089610
     30 C10         4.5340   -2.2520   -2.0080 c3        1 MOL      0.158245
     31 C11         5.1300   -0.9290   -2.5900 c         1 MOL      0.273725
     32 O6          6.2960   -0.6180   -2.2580 o         1 MOL     -0.522249
     33 C12         3.4650   -1.9530   -0.9300 c3        1 MOL     -0.208822
     34 C13         4.1250   -1.6110    0.4360 c         1 MOL      0.645247
     35 O7          3.5000   -1.8340    1.5120 o         1 MOL     -0.621315
     36 O8          5.1810   -1.0440    0.4220 o         1 MOL     -0.621315
     37 H13         6.1340   -3.0420   -0.7830 hn        1 MOL      0.002720
     38 H14         4.0700   -2.6280   -2.9250 h1        1 MOL      0.013427
     39 H15         2.8720   -2.8670   -0.9010 hc        1 MOL      0.063089
     40 H16         2.7780   -1.2230   -1.3600 hc        1 MOL      0.063089
     41 N4          4.2820   -0.0310   -3.1040 n         1 MOL     -0.125597
     42 C14         4.7240    1.2950   -3.3930 c3        1 MOL     -0.379671
     43 C15         4.9130    2.2320   -2.1340 c         1 MOL      0.479833
     44 O9          5.2430    1.6880   -1.0710 o         1 MOL     -0.452682
     45 H17         3.3810   -0.3370   -3.4610 hn        1 MOL      0.262007
     46 H18         3.9980    1.7280   -4.0810 h1        1 MOL      0.145981
     47 H19         5.5670    1.1690   -4.0810 h1        1 MOL      0.145981
     48 N5          4.8280    3.5450   -2.2020 n         1 MOL     -0.318231
     49 C16         5.0670    4.4610   -1.1230 c3        1 MOL      0.032857
     50 C17         3.6440    4.5530   -0.4560 c         1 MOL      0.760452
     51 O10         2.7660    5.2220   -1.0160 o         1 MOL     -0.552044
     52 C18         5.5190    5.7910   -1.6590 c3        1 MOL     -0.327624
     53 C19         5.8890    6.8120   -0.5100 c         1 MOL      0.709280
     54 N6          7.1240    7.3310   -0.5230 n         1 MOL     -0.822304
     55 O11         5.1570    7.0840    0.3670 o         1 MOL     -0.505899
     56 H20         4.5530    3.9840   -3.0700 hn        1 MOL      0.263065
     57 H21         5.8010    4.1100   -0.3830 h1        1 MOL      0.041070
     58 H22         4.7190    6.3060   -2.1760 hc        1 MOL      0.083888
     59 H23         6.4070    5.6630   -2.2720 hc        1 MOL      0.083888
     60 H24         7.6350    7.2780   -1.3930 hn        1 MOL      0.355294
     61 H25         7.2510    8.1690    0.0220 hn        1 MOL      0.355294
     62 N7          3.4120    3.9070    0.7130 n         1 MOL     -0.906424
     63 C20         2.0400    3.7390    1.2120 c3        1 MOL      0.339305
     64 C21         1.4820    2.3810    0.7360 c         1 MOL      0.442540
     65 O12         1.8970    1.3210    1.1630 o         1 MOL     -0.506921
     66 H26         4.1470    3.4290    1.2050 hn        1 MOL      0.467120
     67 H27         1.3450    4.5640    1.0500 h1        1 MOL      0.022985
     68 H28         2.1190    3.6470    2.2930 h1        1 MOL      0.022985
     69 N8          0.4570    2.3270   -0.0800 n         1 MOL     -0.254675
     70 C22        -0.2060    3.4620   -0.6640 c3        1 MOL     -0.302338
     71 C23        -1.4050    3.9890    0.1260 c         1 MOL      0.394981
     72 O13        -1.6760    5.1840    0.1030 o         1 MOL     -0.523450
     73 C24        -0.6910    3.2330   -2.1520 c3        1 MOL      0.422412
     74 C25         0.3720    3.1160   -3.2400 c3        1 MOL     -0.473798
     75 O14        -1.4230    2.0330   -2.1070 oh        1 MOL     -0.631318
     76 H29        -0.0960    1.4820   -0.1070 hn        1 MOL      0.272443
     77 H30         0.5480    4.2420   -0.8230 h1        1 MOL      0.146871
     78 H31        -1.3960    3.9820   -2.5380 h1        1 MOL      0.038183
     79 H32        -1.6840    1.7780   -3.0010 ho        1 MOL      0.420768
     80 H33         0.6070    2.0570   -3.3860 hc        1 MOL      0.111871
     81 H34        -0.1260    3.4760   -4.1320 hc        1 MOL      0.111871
     82 H35         1.2170    3.7540   -2.9670 hc        1 MOL      0.111871
     83 N9         -2.0830    3.1410    0.9010 n         1 MOL      0.016114
     84 C26        -3.2380    3.5860    1.7290 c3        1 MOL     -0.001510
     85 C27        -4.3260    4.4660    0.9940 c         1 MOL      0.552556
     86 O15        -4.5020    5.6460    1.2230 o         1 MOL     -0.533007
     87 C28        -2.8400    4.0670    3.1870 c3        1 MOL      0.177702
     88 C29        -1.6590    3.2790    3.6860 c3        1 MOL     -0.105746
     89 C30        -4.0330    4.1080    4.1250 c3        1 MOL     -0.172835
     90 C31        -1.8280    1.7690    3.9270 c3        1 MOL     -0.032625
     91 H36        -1.7520    2.2060    1.0860 hn        1 MOL      0.169095
     92 H37        -3.8310    2.6770    1.7460 h1        1 MOL     -0.009344
     93 H38        -2.5820    5.1210    3.0980 hc        1 MOL     -0.022992
     94 H39        -1.4470    3.7000    4.6680 hc        1 MOL     -0.008348
     95 H40        -0.8270    3.5280    3.0360 hc        1 MOL     -0.008348
     96 H41        -4.6420    3.2100    4.0330 hc        1 MOL      0.035890
     97 H42        -3.7050    4.1520    5.1680 hc        1 MOL      0.035890
     98 H43        -4.6870    4.9370    3.8290 hc        1 MOL      0.035890
     99 H44        -0.8520    1.3590    4.1690 hc        1 MOL      0.016170
    100 H45        -2.5710    1.4910    4.6740 hc        1 MOL      0.016170
    101 H46        -2.1080    1.3220    2.9720 hc        1 MOL      0.016170
    102 N10        -5.1300    3.9480   -0.0090 n         1 MOL     -0.551713
    103 C32        -4.9600    2.6490   -0.6490 c3        1 MOL      0.629538
    104 C33        -5.7560    1.6050    0.0910 c         1 MOL      0.405207
    105 O16        -5.0950    0.6490    0.5360 o         1 MOL     -0.553379
    106 C34        -5.2710    2.6680   -2.1200 c3        1 MOL     -0.471121
    107 C35        -6.6160    3.2830   -2.6160 c         1 MOL      0.762267
    108 O17        -7.0140    3.1720   -3.8120 o         1 MOL     -0.701207
    109 O18        -7.3940    3.8300   -1.8350 o         1 MOL     -0.701207
    110 H47        -5.9860    4.3880   -0.3200 hn        1 MOL      0.262209
    111 H48        -3.9160    2.3590   -0.5580 h1        1 MOL     -0.170897
    112 H49        -5.2790    1.6330   -2.4640 hc        1 MOL      0.083809
    113 H50        -4.4600    3.1170   -2.6980 hc        1 MOL      0.083809
    114 N11        -7.1000    1.6690    0.1780 n         1 MOL     -0.687021
    115 C36        -7.9660    0.5430    0.6010 c3        1 MOL      0.788654
    116 C37        -8.7880   -0.0460   -0.5720 c         1 MOL      0.369909
    117 O19        -9.5530    0.7600   -1.1780 o         1 MOL     -0.535629
    118 C38        -8.9360    0.8440    1.7480 c3        1 MOL     -0.398665
    119 C39        -9.5960   -0.3420    2.3710 ca        1 MOL      0.208290
    120 C40       -10.9440   -0.6470    2.0380 ca        1 MOL     -0.222971
    121 C41        -8.8570   -1.1340    3.3050 ca        1 MOL     -0.222971
    122 C42       -11.5140   -1.6830    2.7760 ca        1 MOL     -0.061745
    123 C43        -9.4750   -2.2220    3.9110 ca        1 MOL     -0.061745
    124 C44       -10.8230   -2.4760    3.6950 ca        1 MOL     -0.207332
    125 H51        -7.5800    2.3960   -0.3330 hn        1 MOL      0.290858
    126 H52        -7.2950   -0.2590    0.8990 h1        1 MOL     -0.175654
    127 H53        -9.7290    1.4160    1.2670 hc        1 MOL      0.085483
    128 H54        -8.4430    1.4040    2.5440 hc        1 MOL      0.085483
    129 H55       -11.5210   -0.1040    1.3090 ha        1 MOL      0.138495
    130 H56        -7.8240   -0.8940    3.5190 ha        1 MOL      0.138495
    131 H57       -12.5590   -1.8530    2.5350 ha        1 MOL      0.088341
    132 H58        -8.9150   -2.8120    4.6080 ha        1 MOL      0.088341
    133 H59       -11.2630   -3.3030    4.2320 ha        1 MOL      0.116049
    134 N12        -8.8720   -1.3680   -0.8400 n         1 MOL     -0.084958
    135 C45        -8.0220   -2.4160   -0.2670 c3        1 MOL      0.119046
    136 C46        -6.4780   -2.3220   -0.7150 c         1 MOL      0.448334
    137 O20        -6.1900   -1.4170   -1.4970 o         1 MOL     -0.484204
    138 C47        -8.6000   -3.7100   -0.8110 c3        1 MOL     -0.244316
    139 C48        -9.0460   -3.2650   -2.2120 c3        1 MOL      0.038514
    140 C49        -9.6170   -1.8900   -1.9270 c3        1 MOL      0.057330
    141 H60        -8.0280   -2.3510    0.8240 h1        1 MOL     -0.042135
    142 H61        -7.8640   -4.5020   -0.8610 hc        1 MOL      0.048933
    143 H62        -9.4030   -3.9480   -0.1110 hc        1 MOL      0.048933
    144 H63        -8.1820   -3.1720   -2.8810 hc        1 MOL      0.026229
    145 H64        -9.7910   -3.9630   -2.5880 hc        1 MOL      0.026229
    146 H65        -9.5970   -1.2630   -2.8200 h1        1 MOL      0.008985
    147 H66       -10.6500   -2.0420   -1.6280 h1        1 MOL      0.008985
    148 N13        -5.6250   -3.2480   -0.3080 n         1 MOL     -0.176719
    149 C50        -4.2140   -3.1730   -0.6370 c3        1 MOL      0.133439
    150 C51        -3.4060   -4.0020    0.4800 c         1 MOL      0.404539
    151 O21        -2.3510   -4.5990    0.1890 o         1 MOL     -0.491399
    152 C52        -3.9350   -3.5840   -2.0530 c3        1 MOL     -0.113245
    153 C53        -4.4660   -5.0040   -2.3630 c3        1 MOL     -0.010354
    154 C54        -4.2760   -5.3670   -3.8450 c         1 MOL      0.695465
    155 O22        -3.6350   -4.6160   -4.6250 o         1 MOL     -0.691625
    156 O23        -4.7620   -6.4710   -4.2590 o         1 MOL     -0.691625
    157 H67        -5.9670   -4.0890    0.1350 hn        1 MOL      0.185129
    158 H68        -3.8850   -2.1380   -0.5590 h1        1 MOL      0.051137
    159 H69        -2.9010   -3.5870   -2.4000 hc        1 MOL      0.054724
    160 H70        -4.4920   -2.9050   -2.7020 hc        1 MOL      0.054724
    161 H71        -5.5470   -5.1090   -2.2510 hc        1 MOL     -0.041895
    162 H72        -4.0280   -5.7740   -1.7330 hc        1 MOL     -0.041895
    163 N14        -3.7370   -3.8310    1.8160 n         1 MOL     -0.400448
    164 C55        -4.6630   -2.9260    2.5590 c3        1 MOL     -0.019238
    165 H73        -4.3940   -2.9180    3.6150 h1        1 MOL      0.043170
    166 H74        -4.5850   -1.9150    2.1580 h1        1 MOL      0.043170
    167 H75        -5.6880   -3.2820    2.4480 h1        1 MOL      0.043170
    168 H76        -3.3060   -4.4630    2.4740 hn        1 MOL      0.261871
    169 Ca1         7.1910    0.3720    0.1200 Ca        1 MOL      1.790115
    170 O24         7.8690    2.5200   -1.4470 oh        1 MOL     -0.851470
    171 H77         8.6500    3.0340   -1.2350 ho        1 MOL      0.398487
    172 H78         7.6340    2.7800   -2.3340 ho        1 MOL      0.398487
    173 O25         9.4650   -0.0900   -1.2780 oh        1 MOL     -0.851470
    174 H79        10.3880    0.1690   -1.1940 ho        1 MOL      0.398487
    175 H80         9.4960   -1.0420   -1.3360 ho        1 MOL      0.398487
    176 O26         5.8450    2.0670    1.6990 oh        1 MOL     -0.851470
    177 H81         5.3520    1.9310    2.5150 ho        1 MOL      0.398487
    178 H82         6.1120    2.9830    1.7410 ho        1 MOL      0.398487
    179 O27         9.2540    1.6920    1.4840 oh        1 MOL     -0.851470
    180 H83        10.1470    2.0190    1.3140 ho        1 MOL      0.398487
    181 H84         9.1550    1.7470    2.4270 ho        1 MOL      0.398487
@<TRIPOS>BOND
     1    1    2 1   
     2    1    4 1   
     3    1    5 1   
     4    1    6 1   
     5    2    3 2   
     6    2    7 1   
     7    7    8 1   
     8    7   15 1   
     9    8    9 1   
    10    8   11 1   
    11    8   16 1   
    12    9   10 2   
    13    9   19 1   
    14   11   12 1   
    15   11   17 1   
    16   11   18 1   
    17   12   13 1   
    18   12   14 1   
    19   19   20 1   
    20   19   24 1   
    21   20   21 1   
    22   20   23 1   
    23   20   25 1   
    24   21   22 2   
    25   21   29 1   
    26   23   26 1   
    27   23   27 1   
    28   23   28 1   
    29   29   30 1   
    30   29   37 1   
    31   30   31 1   
    32   30   33 1   
    33   30   38 1   
    34   31   32 2   
    35   31   41 1   
    36   33   34 1   
    37   33   39 1   
    38   33   40 1   
    39   34   35 1   
    40   34   36 1   
    41   41   42 1   
    42   41   45 1   
    43   42   43 1   
    44   42   46 1   
    45   42   47 1   
    46   43   44 2   
    47   43   48 1   
    48   48   49 1   
    49   48   56 1   
    50   49   50 1   
    51   49   52 1   
    52   49   57 1   
    53   50   51 2   
    54   50   62 1   
    55   52   53 1   
    56   52   58 1   
    57   52   59 1   
    58   53   54 1   
    59   53   55 2   
    60   54   60 1   
    61   54   61 1   
    62   62   63 1   
    63   62   66 1   
    64   63   64 1   
    65   63   67 1   
    66   63   68 1   
    67   64   65 2   
    68   64   69 1   
    69   69   70 1   
    70   69   76 1   
    71   70   71 1   
    72   70   73 1   
    73   70   77 1   
    74   71   72 2   
    75   71   83 1   
    76   73   74 1   
    77   73   75 1   
    78   73   78 1   
    79   74   80 1   
    80   74   81 1   
    81   74   82 1   
    82   75   79 1   
    83   83   84 1   
    84   83   91 1   
    85   84   85 1   
    86   84   87 1   
    87   84   92 1   
    88   85   86 2   
    89   85  102 1   
    90   87   88 1   
    91   87   89 1   
    92   87   93 1   
    93   88   90 1   
    94   88   94 1   
    95   88   95 1   
    96   89   96 1   
    97   89   97 1   
    98   89   98 1   
    99   90   99 1   
   100   90  100 1   
   101   90  101 1   
   102  102  103 1   
   103  102  110 1   
   104  103  104 1   
   105  103  106 1   
   106  103  111 1   
   107  104  105 2   
   108  104  114 1   
   109  106  107 1   
   110  106  112 1   
   111  106  113 1   
   112  107  108 1   
   113  107  109 1   
   114  114  115 1   
   115  114  125 1   
   116  115  116 1   
   117  115  118 1   
   118  115  126 1   
   119  116  117 2   
   120  116  134 1   
   121  118  119 1   
   122  118  127 1   
   123  118  128 1   
   124  119  120 ar  
   125  119  121 ar  
   126  120  122 ar  
   127  120  129 1   
   128  121  123 ar  
   129  121  130 1   
   130  122  124 ar  
   131  122  131 1   
   132  123  124 ar  
   133  123  132 1   
   134  124  133 1   
   135  134  135 1   
   136  134  140 1   
   137  135  136 1   
   138  135  138 1   
   139  135  141 1   
   140  136  137 2   
   141  136  148 1   
   142  138  139 1   
   143  138  142 1   
   144  138  143 1   
   145  139  140 1   
   146  139  144 1   
   147  139  145 1   
   148  140  146 1   
   149  140  147 1   
   150  148  149 1   
   151  148  157 1   
   152  149  150 1   
   153  149  152 1   
   154  149  158 1   
   155  150  151 2   
   156  150  163 1   
   157  152  153 1   
   158  152  159 1   
   159  152  160 1   
   160  153  154 1   
   161  153  161 1   
   162  153  162 1   
   163  154  155 1   
   164  154  156 1   
   165  163  164 1   
   166  163  168 1   
   167  164  165 1   
   168  164  166 1   
   169  164  167 1   
   170  170  171 1   
   171  170  172 1   
   172  173  174 1   
   173  173  175 1   
   174  176  177 1   
   175  176  178 1   
   176  179  180 1   
   177  179  181 1   
@<TRIPOS>SUBSTRUCTURE
     1 MOL         1 TEMP              0 ****  ****    0 ROOT
