@<TRIPOS>MOLECULE
MOL
  181   177     1     0     0
SMALL
resp


@<TRIPOS>ATOM
      1 C1          6.4530    0.6820    6.5600 c3        1 MOL     -0.289110
      2 C2          5.5810    0.1520    5.4980 c         1 MOL      0.617689
      3 O1          4.3560    0.2800    5.5310 o         1 MOL     -0.547068
      4 H1          7.2250   -0.0510    6.7960 hc        1 MOL      0.072555
      5 H2          6.9210    1.6050    6.2200 hc        1 MOL      0.072555
      6 H3          5.8590    0.8810    7.4520 hc        1 MOL      0.072555
      7 N1          6.0430   -0.4730    4.3470 n         1 MOL     -0.321395
      8 C3          7.4370   -0.7610    3.9700 c3        1 MOL     -0.055322
      9 C4          7.5600   -2.0640    3.2470 c         1 MOL      0.381767
     10 O2          6.5750   -2.7800    3.0870 o         1 MOL     -0.411676
     11 C5          8.0660    0.5010    3.2670 c3        1 MOL     -0.191260
     12 C6          7.4260    0.7890    1.9150 c         1 MOL      0.639739
     13 O3          6.6210    1.7320    1.7740 o         1 MOL     -0.668729
     14 O4          7.8160    0.0840    0.9310 o         1 MOL     -0.668729
     15 H4          5.3520   -0.9660    3.7930 hn        1 MOL      0.246578
     16 H5          8.1320   -0.8350    4.8070 h1        1 MOL      0.079370
     17 H6          9.1440    0.3090    3.1710 hc        1 MOL      0.043305
     18 H7          7.9200    1.3040    3.9840 hc        1 MOL      0.043305
     19 N2          8.7630   -2.3710    2.7600 n         1 MOL     -0.457655
     20 C7          8.9930   -3.6340    1.9900 c3        1 MOL      0.309599
     21 C8          7.8380   -3.8640    0.8980 c         1 MOL      0.295024
     22 O5          7.5590   -5.0130    0.5210 o         1 MOL     -0.538864
     23 C9          9.1640   -4.8300    2.9730 c3        1 MOL     -0.343542
     24 H8          9.5630   -1.7900    2.9950 hn        1 MOL      0.291562
     25 H9          9.8800   -3.4490    1.3910 h1        1 MOL     -0.002243
     26 H10         9.9360   -4.5810    3.7010 hc        1 MOL      0.096071
     27 H11         8.2500   -5.1030    3.4980 hc        1 MOL      0.096071
     28 H12         9.5390   -5.6980    2.4440 hc        1 MOL      0.096071
     29 N3          7.1150   -2.8520    0.3880 n         1 MOL     -0.038169
     30 C10         5.9420   -3.0250   -0.5110 c3        1 MOL      0.059086
     31 C11         6.0040   -2.3410   -1.8460 c         1 MOL      0.208526
     32 O6          6.3240   -1.1430   -1.8380 o         1 MOL     -0.477502
     33 C12         4.6160   -2.6110    0.2380 c3        1 MOL      0.042216
     34 C13         4.5470   -1.1980    0.8830 c         1 MOL      0.560969
     35 O7          4.2340   -1.0900    2.1020 o         1 MOL     -0.618293
     36 O8          4.5520   -0.2100    0.1410 o         1 MOL     -0.618293
     37 H13         7.3990   -1.9090    0.6190 hn        1 MOL      0.002030
     38 H14         5.6650   -3.9980   -0.9190 h1        1 MOL      0.014006
     39 H15         4.4670   -3.3440    1.0320 hc        1 MOL      0.008051
     40 H16         3.7630   -2.7580   -0.4330 hc        1 MOL      0.008051
     41 N4          5.7320   -3.0090   -2.9280 n         1 MOL     -0.149286
     42 C14         5.6590   -2.4060   -4.2620 c3        1 MOL     -0.459592
     43 C15         4.5120   -1.3590   -4.5410 c         1 MOL      0.656473
     44 O9          4.5310   -0.6390   -5.5460 o         1 MOL     -0.543157
     45 H17         5.4630   -3.9690   -2.8220 hn        1 MOL      0.273052
     46 H18         5.6640   -3.2190   -4.9810 h1        1 MOL      0.183335
     47 H19         6.6230   -1.9160   -4.3970 h1        1 MOL      0.183335
     48 N5          3.4690   -1.2800   -3.6750 n         1 MOL     -0.390043
     49 C16         2.5240   -0.0970   -3.7170 c3        1 MOL     -0.050565
     50 C17         3.2240    1.2710   -3.2230 c         1 MOL      0.713149
     51 O10         4.1950    1.2900   -2.4860 o         1 MOL     -0.638514
     52 C18         1.1530   -0.4970   -3.0170 c3        1 MOL     -0.187711
     53 C19         0.4440   -1.5880   -3.6780 c         1 MOL      0.705876
     54 N6          0.0080   -2.6540   -3.0820 n         1 MOL     -0.808412
     55 O11         0.3890   -1.5730   -4.8760 o         1 MOL     -0.570509
     56 H20         3.5140   -1.7560   -2.7850 hn        1 MOL      0.258832
     57 H21         2.2700    0.1480   -4.7370 h1        1 MOL      0.084487
     58 H22         0.3900    0.2710   -2.8640 hc        1 MOL      0.056823
     59 H23         1.4360   -0.8050   -2.0100 hc        1 MOL      0.056823
     60 H24         0.0470   -2.7960   -2.0780 hn        1 MOL      0.384430
     61 H25        -0.4560   -3.2520   -3.7420 hn        1 MOL      0.384430
     62 N7          2.5710    2.3650   -3.4900 n         1 MOL     -0.580497
     63 C20         3.0250    3.7230   -3.1550 c3        1 MOL      0.251300
     64 C21         1.8380    4.6360   -3.1140 c         1 MOL      0.493301
     65 O12         1.5630    5.2630   -4.1440 o         1 MOL     -0.542344
     66 H26         1.7310    2.3080   -4.0530 hn        1 MOL      0.342264
     67 H27         3.6870    4.2390   -3.8520 h1        1 MOL     -0.020593
     68 H28         3.4980    3.7280   -2.1810 h1        1 MOL     -0.020593
     69 N8          1.0700    4.6890   -1.9980 n         1 MOL     -0.384361
     70 C22         1.1680    3.9390   -0.6900 c3        1 MOL     -0.156902
     71 C23        -0.2580    3.5770   -0.2200 c         1 MOL      0.670153
     72 O13        -1.1270    4.3560   -0.4950 o         1 MOL     -0.514084
     73 C24         1.7800    4.8210    0.4190 c3        1 MOL      0.178990
     74 C25         1.8390    4.2270    1.7960 c3        1 MOL     -0.373960
     75 O14         3.1060    5.1270    0.0090 oh        1 MOL     -0.613799
     76 H29         0.3350    5.3800   -1.9610 hn        1 MOL      0.291905
     77 H30         1.7490    3.0220   -0.8060 h1        1 MOL      0.110822
     78 H31         1.1660    5.7300    0.3650 h1        1 MOL      0.078951
     79 H32         3.3940    5.9340    0.4290 ho        1 MOL      0.418767
     80 H33         0.8120    4.2090    2.1750 hc        1 MOL      0.124565
     81 H34         2.3220    3.2550    1.7250 hc        1 MOL      0.124565
     82 H35         2.3630    4.8900    2.4870 hc        1 MOL      0.124565
     83 N9         -0.5570    2.4670    0.4920 n         1 MOL     -0.641339
     84 C26        -1.8890    2.1130    1.0240 c3        1 MOL      0.009105
     85 C27        -2.3570    3.1650    2.1450 c         1 MOL      0.688211
     86 O15        -1.6000    3.3790    3.0970 o         1 MOL     -0.603548
     87 C28        -1.8040    0.6880    1.4730 c3        1 MOL      0.015656
     88 C29        -1.2640   -0.3580    0.4400 c3        1 MOL      0.020536
     89 C30        -3.1630    0.1380    1.7990 c3        1 MOL     -0.123666
     90 C31        -1.8770   -0.3230   -0.9980 c3        1 MOL     -0.366232
     91 H36         0.2010    1.8450    0.7420 hn        1 MOL      0.336376
     92 H37        -2.5830    2.1870    0.1880 h1        1 MOL      0.183808
     93 H38        -1.1720    0.6870    2.3630 hc        1 MOL      0.046899
     94 H39        -1.3530   -1.3860    0.8070 hc        1 MOL      0.000932
     95 H40        -0.1880   -0.2380    0.3120 hc        1 MOL      0.000932
     96 H41        -3.8300    0.0860    0.9320 hc        1 MOL      0.031322
     97 H42        -2.9980   -0.8210    2.2700 hc        1 MOL      0.031322
     98 H43        -3.5930    0.7130    2.6150 hc        1 MOL      0.031322
     99 H44        -1.3550   -1.0530   -1.6180 hc        1 MOL      0.102582
    100 H45        -2.9370   -0.5890   -0.9980 hc        1 MOL      0.102582
    101 H46        -1.7060    0.6180   -1.5200 hc        1 MOL      0.102582
    102 N10        -3.5580    3.7260    2.0590 n         1 MOL     -0.687586
    103 C32        -4.6160    3.6820    1.0860 c3        1 MOL      0.619188
    104 C33        -5.6940    2.6560    1.4720 c         1 MOL      0.547024
    105 O16        -5.7980    2.2790    2.6770 o         1 MOL     -0.613425
    106 C34        -5.2610    5.0340    0.9520 c3        1 MOL     -0.444720
    107 C35        -6.2690    5.2450   -0.1940 c         1 MOL      0.739366
    108 O17        -6.2440    4.5400   -1.2400 o         1 MOL     -0.709280
    109 O18        -7.2010    6.1010   -0.1180 o         1 MOL     -0.709280
    110 H47        -3.8150    4.2040    2.9090 hn        1 MOL      0.318028
    111 H48        -4.1860    3.2970    0.1550 h1        1 MOL     -0.148033
    112 H49        -4.4660    5.7530    0.8110 hc        1 MOL      0.067959
    113 H50        -5.7330    5.2590    1.9110 hc        1 MOL      0.067959
    114 N11        -6.4390    2.1890    0.4840 n         1 MOL     -0.541678
    115 C36        -7.3860    1.0770    0.7420 c3        1 MOL      0.254282
    116 C37        -7.9920    0.6070   -0.6200 c         1 MOL      0.243998
    117 O19        -8.2510    1.4730   -1.4890 o         1 MOL     -0.471415
    118 C38        -8.6780    1.5960    1.5030 c3        1 MOL     -0.265429
    119 C39        -9.7430    0.5720    1.7760 ca        1 MOL      0.129339
    120 C40       -10.8690    0.3200    0.9650 ca        1 MOL     -0.198312
    121 C41        -9.5050   -0.1960    2.8960 ca        1 MOL     -0.198312
    122 C42       -11.9010   -0.5150    1.4000 ca        1 MOL     -0.086851
    123 C43       -10.4960   -1.1640    3.2570 ca        1 MOL     -0.086851
    124 C44       -11.7200   -1.2440    2.5980 ca        1 MOL     -0.158441
    125 H51        -6.4530    2.6510   -0.4190 hn        1 MOL      0.337391
    126 H52        -6.9570    0.2000    1.2330 h1        1 MOL      0.028433
    127 H53        -9.1610    2.4580    1.0330 hc        1 MOL      0.109598
    128 H54        -8.2640    1.9670    2.4400 hc        1 MOL      0.109598
    129 H55       -11.0620    0.9440    0.1170 ha        1 MOL      0.141448
    130 H56        -8.5270   -0.2200    3.3540 ha        1 MOL      0.141448
    131 H57       -12.7950   -0.6760    0.8220 ha        1 MOL      0.088159
    132 H58       -10.3480   -1.7190    4.1760 ha        1 MOL      0.088159
    133 H59       -12.4280   -1.9720    2.9630 ha        1 MOL      0.098903
    134 N12        -8.2580   -0.7220   -0.8140 n         1 MOL     -0.044803
    135 C45        -7.9200   -1.8140    0.0650 c3        1 MOL      0.404163
    136 C46        -6.4160   -2.1550   -0.0410 c         1 MOL      0.177704
    137 O20        -5.6330   -1.2640   -0.2720 o         1 MOL     -0.436694
    138 C47        -8.8080   -2.9510   -0.4500 c3        1 MOL     -0.246391
    139 C48        -9.7910   -2.3010   -1.4330 c3        1 MOL     -0.007236
    140 C49        -9.0570   -1.1780   -1.9510 c3        1 MOL      0.023491
    141 H60        -8.2370   -1.5760    1.0880 h1        1 MOL     -0.089059
    142 H61        -8.3220   -3.6750   -1.1020 hc        1 MOL      0.059315
    143 H62        -9.3590   -3.4370    0.3570 hc        1 MOL      0.059315
    144 H63        -9.9910   -2.9840   -2.2490 hc        1 MOL      0.020923
    145 H64       -10.7320   -1.9470   -1.0240 hc        1 MOL      0.020923
    146 H65        -8.3680   -1.4960   -2.7280 h1        1 MOL      0.046087
    147 H66        -9.7400   -0.4030   -2.2850 h1        1 MOL      0.046087
    148 N13        -5.9410   -3.4130    0.1240 n         1 MOL     -0.040410
    149 C50        -4.5170   -3.7510    0.1100 c3        1 MOL      0.096397
    150 C51        -4.0680   -4.9280    1.0470 c         1 MOL      0.403546
    151 O21        -3.2090   -5.7380    0.7330 o         1 MOL     -0.522879
    152 C52        -3.9310   -3.9270   -1.2400 c3        1 MOL     -0.009059
    153 C53        -4.4060   -5.1400   -2.1810 c3        1 MOL     -0.363177
    154 C54        -5.8160   -4.8740   -2.7230 c         1 MOL      0.767765
    155 O22        -6.8210   -5.6650   -2.5310 o         1 MOL     -0.726195
    156 O23        -5.9910   -3.9310   -3.5930 o         1 MOL     -0.726195
    157 H67        -6.6750   -4.0730    0.2880 hn        1 MOL      0.098632
    158 H68        -4.0350   -2.8750    0.5410 h1        1 MOL      0.068558
    159 H69        -2.8520   -3.9770   -1.1910 hc        1 MOL      0.024245
    160 H70        -4.1150   -2.9710   -1.7340 hc        1 MOL      0.024245
    161 H71        -4.2830   -6.0290   -1.5540 hc        1 MOL      0.070860
    162 H72        -3.7110   -5.2770   -3.0160 hc        1 MOL      0.070860
    163 N14        -4.5900   -4.9840    2.2610 n         1 MOL     -0.358456
    164 C55        -5.2750   -3.9640    3.0290 c3        1 MOL      0.042186
    165 H73        -5.7980   -3.2890    2.3520 h1        1 MOL      0.019593
    166 H74        -5.9940   -4.4350    3.7000 h1        1 MOL      0.019593
    167 H75        -4.5480   -3.3990    3.6130 h1        1 MOL      0.019593
    168 H76        -4.1820   -5.7150    2.8290 hn        1 MOL      0.258375
    169 Ca1         6.3560    1.3570   -0.8810 Ca        1 MOL      1.765239
    170 O24         8.9610    0.5950   -1.5980 oh        1 MOL     -0.845544
    171 H77         9.3130    0.3650   -0.7440 ho        1 MOL      0.413727
    172 H78         9.3440   -0.0490   -2.1920 ho        1 MOL      0.413727
    173 O25         8.0850    3.5680   -0.7780 oh        1 MOL     -0.845544
    174 H79         8.1210    4.3750   -0.2640 ho        1 MOL      0.413727
    175 H80         8.6270    3.7480   -1.5470 ho        1 MOL      0.413727
    176 O26         6.8700    2.4060   -3.1910 oh        1 MOL     -0.845544
    177 H81         7.3610    3.2250   -3.2640 ho        1 MOL      0.413727
    178 H82         6.4190    2.3140   -4.0250 ho        1 MOL      0.413727
    179 O27         4.2900    2.8630    0.1440 oh        1 MOL     -0.845544
    180 H83         3.7300    3.6220   -0.0190 ho        1 MOL      0.413727
    181 H84         4.0720    2.6020    1.0450 ho        1 MOL      0.413727
@<TRIPOS>BOND
     1    1    2 1   
     2    1    4 1   
     3    1    5 1   
     4    1    6 1   
     5    2    3 2   
     6    2    7 1   
     7    7    8 1   
     8    7   15 1   
     9    8    9 1   
    10    8   11 1   
    11    8   16 1   
    12    9   10 2   
    13    9   19 1   
    14   11   12 1   
    15   11   17 1   
    16   11   18 1   
    17   12   13 1   
    18   12   14 1   
    19   19   20 1   
    20   19   24 1   
    21   20   21 1   
    22   20   23 1   
    23   20   25 1   
    24   21   22 2   
    25   21   29 1   
    26   23   26 1   
    27   23   27 1   
    28   23   28 1   
    29   29   30 1   
    30   29   37 1   
    31   30   31 1   
    32   30   33 1   
    33   30   38 1   
    34   31   32 2   
    35   31   41 1   
    36   33   34 1   
    37   33   39 1   
    38   33   40 1   
    39   34   35 1   
    40   34   36 1   
    41   41   42 1   
    42   41   45 1   
    43   42   43 1   
    44   42   46 1   
    45   42   47 1   
    46   43   44 2   
    47   43   48 1   
    48   48   49 1   
    49   48   56 1   
    50   49   50 1   
    51   49   52 1   
    52   49   57 1   
    53   50   51 2   
    54   50   62 1   
    55   52   53 1   
    56   52   58 1   
    57   52   59 1   
    58   53   54 1   
    59   53   55 2   
    60   54   60 1   
    61   54   61 1   
    62   62   63 1   
    63   62   66 1   
    64   63   64 1   
    65   63   67 1   
    66   63   68 1   
    67   64   65 2   
    68   64   69 1   
    69   69   70 1   
    70   69   76 1   
    71   70   71 1   
    72   70   73 1   
    73   70   77 1   
    74   71   72 2   
    75   71   83 1   
    76   73   74 1   
    77   73   75 1   
    78   73   78 1   
    79   74   80 1   
    80   74   81 1   
    81   74   82 1   
    82   75   79 1   
    83   83   84 1   
    84   83   91 1   
    85   84   85 1   
    86   84   87 1   
    87   84   92 1   
    88   85   86 2   
    89   85  102 1   
    90   87   88 1   
    91   87   89 1   
    92   87   93 1   
    93   88   90 1   
    94   88   94 1   
    95   88   95 1   
    96   89   96 1   
    97   89   97 1   
    98   89   98 1   
    99   90   99 1   
   100   90  100 1   
   101   90  101 1   
   102  102  103 1   
   103  102  110 1   
   104  103  104 1   
   105  103  106 1   
   106  103  111 1   
   107  104  105 2   
   108  104  114 1   
   109  106  107 1   
   110  106  112 1   
   111  106  113 1   
   112  107  108 1   
   113  107  109 1   
   114  114  115 1   
   115  114  125 1   
   116  115  116 1   
   117  115  118 1   
   118  115  126 1   
   119  116  117 2   
   120  116  134 1   
   121  118  119 1   
   122  118  127 1   
   123  118  128 1   
   124  119  120 ar  
   125  119  121 ar  
   126  120  122 ar  
   127  120  129 1   
   128  121  123 ar  
   129  121  130 1   
   130  122  124 ar  
   131  122  131 1   
   132  123  124 ar  
   133  123  132 1   
   134  124  133 1   
   135  134  135 1   
   136  134  140 1   
   137  135  136 1   
   138  135  138 1   
   139  135  141 1   
   140  136  137 2   
   141  136  148 1   
   142  138  139 1   
   143  138  142 1   
   144  138  143 1   
   145  139  140 1   
   146  139  144 1   
   147  139  145 1   
   148  140  146 1   
   149  140  147 1   
   150  148  149 1   
   151  148  157 1   
   152  149  150 1   
   153  149  152 1   
   154  149  158 1   
   155  150  151 2   
   156  150  163 1   
   157  152  153 1   
   158  152  159 1   
   159  152  160 1   
   160  153  154 1   
   161  153  161 1   
   162  153  162 1   
   163  154  155 1   
   164  154  156 1   
   165  163  164 1   
   166  163  168 1   
   167  164  165 1   
   168  164  166 1   
   169  164  167 1   
   170  170  171 1   
   171  170  172 1   
   172  173  174 1   
   173  173  175 1   
   174  176  177 1   
   175  176  178 1   
   176  179  180 1   
   177  179  181 1   
@<TRIPOS>SUBSTRUCTURE
     1 MOL         1 TEMP              0 ****  ****    0 ROOT
