@<TRIPOS>MOLECULE
MOL
  179   176     1     0     0
SMALL
resp


@<TRIPOS>ATOM
      1 C1         -2.5840   -3.9050    6.1240 c3        1 MOL     -0.382843
      2 C2         -2.4710   -3.3440    4.6490 c         1 MOL      0.713480
      3 O1         -3.4260   -2.8820    4.0630 o         1 MOL     -0.573215
      4 H1         -1.5850   -4.0980    6.5160 hc        1 MOL      0.100488
      5 H2         -3.0850   -3.1720    6.7550 hc        1 MOL      0.100488
      6 H3         -3.1560   -4.8320    6.1180 hc        1 MOL      0.100488
      7 N1         -1.2130   -3.2080    4.2180 n         1 MOL     -0.452067
      8 C3         -0.7860   -2.7870    2.8950 c3        1 MOL     -0.058864
      9 C4         -0.8760   -3.9570    1.8900 c         1 MOL      0.435014
     10 O2         -0.0660   -4.8780    2.0600 o         1 MOL     -0.467768
     11 C5          0.6490   -2.1840    2.9570 c3        1 MOL      0.076637
     12 C6          1.2780   -1.8010    1.5910 c         1 MOL      0.426863
     13 O3          2.4500   -1.3290    1.5920 o         1 MOL     -0.724711
     14 O4          0.6940   -1.9660    0.4720 o         1 MOL     -0.724711
     15 H4         -0.4140   -3.3880    4.8140 hn        1 MOL      0.253586
     16 H5         -1.4680   -2.0120    2.5460 h1        1 MOL      0.082020
     17 H6          1.3680   -2.8070    3.4830 hc        1 MOL      0.063190
     18 H7          0.5440   -1.2820    3.5650 hc        1 MOL      0.063190
     19 N2         -1.7540   -4.0100    0.8790 n         1 MOL     -0.330488
     20 C7         -1.9570   -5.1910    0.0080 c3        1 MOL     -0.052318
     21 C8         -0.7220   -5.6780   -0.6910 c         1 MOL      0.396656
     22 O5         -0.5500   -6.9110   -0.7340 o         1 MOL     -0.543054
     23 C9         -3.0710   -4.7990   -0.9800 c3        1 MOL      0.112688
     24 C10        -3.6200   -6.0000   -1.8030 c3        1 MOL      0.024800
     25 C11        -4.8940   -5.8140   -2.5580 c3        1 MOL      0.184720
     26 C12        -4.8800   -4.4260   -3.1280 c3        1 MOL      0.128202
     27 N3         -6.0420   -4.0350   -3.9590 n4        1 MOL     -0.505128
     28 H8         -2.3420   -3.1900    0.8290 hn        1 MOL      0.248623
     29 H9         -2.3900   -5.9700    0.6280 h1        1 MOL      0.123244
     30 H10        -2.7400   -4.1210   -1.7640 hc        1 MOL     -0.032789
     31 H11        -3.9160   -4.3560   -0.4490 hc        1 MOL     -0.032789
     32 H12        -3.8020   -6.8110   -1.0900 hc        1 MOL     -0.000963
     33 H13        -2.8870   -6.2790   -2.5560 hc        1 MOL     -0.000963
     34 H14        -5.7260   -5.9180   -1.8660 hc        1 MOL     -0.041482
     35 H15        -5.0700   -6.5400   -3.3620 hc        1 MOL     -0.041482
     36 H16        -3.9530   -4.3900   -3.6990 hx        1 MOL      0.031264
     37 H17        -4.8630   -3.7550   -2.2800 hx        1 MOL      0.031264
     38 H18        -5.8320   -3.6990   -4.8880 hn        1 MOL      0.346052
     39 H19        -6.4800   -4.9420   -4.0940 hn        1 MOL      0.346052
     40 H20        -6.6260   -3.4350   -3.3940 hn        1 MOL      0.346052
     41 N4          0.0680   -4.7470   -1.1830 n         1 MOL     -0.114845
     42 C13         1.3140   -5.0220   -1.9120 c3        1 MOL     -0.035011
     43 C14         2.5890   -4.9480   -1.0500 c         1 MOL      0.422985
     44 O6          3.6810   -5.4030   -1.4420 o         1 MOL     -0.558460
     45 C15         1.3370   -4.0540   -3.1000 c3        1 MOL     -0.393429
     46 C16         1.5720   -2.5840   -2.7400 c         1 MOL      0.761603
     47 O7          2.6590   -2.2700   -2.4070 o         1 MOL     -0.746669
     48 O8          0.6270   -1.7790   -2.5400 o         1 MOL     -0.746669
     49 H21        -0.1280   -3.7660   -1.0360 hn        1 MOL      0.218762
     50 H22         1.3310   -6.0130   -2.3650 h1        1 MOL      0.120365
     51 H23         0.4200   -4.0830   -3.6870 hc        1 MOL      0.106634
     52 H24         2.1480   -4.3480   -3.7670 hc        1 MOL      0.106634
     53 N5          2.4760   -4.6070    0.2580 n         1 MOL      0.027707
     54 C17         3.6130   -4.7050    1.3030 c3        1 MOL     -0.444375
     55 C18         4.8300   -3.8190    1.0970 c         1 MOL      0.864069
     56 O9          5.7670   -3.9700    1.8510 o         1 MOL     -0.606842
     57 H25         1.5710   -4.3200    0.5700 hn        1 MOL      0.073259
     58 H26         3.9720   -5.7360    1.2500 h1        1 MOL      0.166220
     59 H27         3.1840   -4.4000    2.2550 h1        1 MOL      0.166220
     60 N6          4.9860   -3.0820   -0.0080 n         1 MOL     -0.678354
     61 C19         6.2630   -2.4210   -0.4020 c3        1 MOL      0.357562
     62 C20         5.9070   -1.0570   -0.9660 c         1 MOL      0.433617
     63 O10         4.6700   -0.7300   -1.1250 o         1 MOL     -0.402324
     64 C21         7.0440   -3.3890   -1.3830 c3        1 MOL     -0.480612
     65 C22         8.6010   -3.1880   -1.5530 c         1 MOL      0.702631
     66 N7          9.1430   -3.5640   -2.7130 n         1 MOL     -0.803675
     67 O11         9.2410   -2.7000   -0.6610 o         1 MOL     -0.538159
     68 H28         4.3060   -3.2400   -0.7460 hn        1 MOL      0.347073
     69 H29         6.9010   -2.3260    0.4800 h1        1 MOL      0.042097
     70 H30         6.4840   -3.4370   -2.3150 hc        1 MOL      0.156002
     71 H31         7.0660   -4.4030   -0.9790 hc        1 MOL      0.156002
     72 H32         8.5340   -3.8670   -3.4640 hn        1 MOL      0.364205
     73 H33        10.1070   -3.3570   -2.8960 hn        1 MOL      0.364205
     74 N8          6.9230   -0.1870   -1.1530 n         1 MOL     -0.594909
     75 C23         6.5960    1.1530   -1.5950 c3        1 MOL      0.254414
     76 C24         5.8990    2.0410   -0.5640 c         1 MOL      0.491095
     77 O12         5.9870    1.7500    0.6200 o         1 MOL     -0.465044
     78 H34         7.8410   -0.3990   -0.7750 hn        1 MOL      0.342681
     79 H35         5.9720    1.0920   -2.4860 h1        1 MOL     -0.001486
     80 H36         7.5200    1.6110   -1.9560 h1        1 MOL     -0.001486
     81 N9          5.2290    3.1470   -0.9460 n         1 MOL     -0.676676
     82 C25         4.2900    3.9340   -0.1550 c3        1 MOL      0.534616
     83 C26         3.1590    3.0260    0.3960 c         1 MOL      0.436328
     84 O13         2.9340    1.9580   -0.1520 o         1 MOL     -0.578423
     85 C27         3.7510    5.1260   -0.9480 c3        1 MOL     -0.215628
     86 C28         4.5940    6.4010   -0.9730 ca        1 MOL      0.058152
     87 C29         4.7480    7.2400    0.1540 ca        1 MOL     -0.132566
     88 C30         5.3480    6.7230   -2.1100 ca        1 MOL     -0.132566
     89 C31         5.4960    8.3770    0.1740 ca        1 MOL     -0.258289
     90 C32         6.2590    7.8120   -2.0830 ca        1 MOL     -0.258289
     91 C33         6.2500    8.6810   -0.9790 ca        1 MOL      0.326943
     92 O14         7.0280    9.8240   -0.9590 oh        1 MOL     -0.472404
     93 H37         5.3220    3.4010   -1.9200 hn        1 MOL      0.260743
     94 H38         4.8160    4.3790    0.6910 h1        1 MOL     -0.018995
     95 H39         2.8420    5.3330   -0.3980 hc        1 MOL      0.050888
     96 H40         3.4380    4.7420   -1.9280 hc        1 MOL      0.050888
     97 H41         4.1650    6.9640    1.0220 ha        1 MOL      0.115209
     98 H42         5.3870    6.1070   -2.9910 ha        1 MOL      0.115209
     99 H43         5.5090    9.0560    1.0120 ha        1 MOL      0.164038
    100 H44         6.9600    8.0600   -2.8670 ha        1 MOL      0.164038
    101 H45         7.5410   10.0050   -1.7430 ho        1 MOL      0.359329
    102 N10         2.5490    3.4890    1.5230 n         1 MOL     -0.588774
    103 C34         1.7490    2.6440    2.3770 c3        1 MOL      0.164273
    104 C35         0.4870    1.9560    1.7670 c         1 MOL      0.587215
    105 O15         0.5380    1.2440    0.7370 o         1 MOL     -0.544438
    106 C36         2.6780    1.8260    3.2450 c3        1 MOL      0.176420
    107 C37         1.9240    1.2540    4.5040 c3        1 MOL      0.031619
    108 C38         3.9110    2.6520    3.7080 c3        1 MOL     -0.321629
    109 C39         2.7530    0.4430    5.5040 c3        1 MOL     -0.107025
    110 H46         2.8990    4.3440    1.9300 hn        1 MOL      0.322547
    111 H47         1.3100    3.3490    3.0900 h1        1 MOL     -0.011888
    112 H48         2.9870    1.0210    2.5750 hc        1 MOL      0.067534
    113 H49         1.1100    0.6380    4.1180 hc        1 MOL     -0.028152
    114 H50         1.5790    2.1520    5.0250 hc        1 MOL     -0.028152
    115 H51         4.5820    1.9340    4.1740 hc        1 MOL      0.079254
    116 H52         4.5520    2.9620    2.8770 hc        1 MOL      0.079254
    117 H53         3.6900    3.4910    4.3720 hc        1 MOL      0.079254
    118 H54         3.1380   -0.4950    5.1260 hc        1 MOL      0.034332
    119 H55         3.4910    1.0350    6.0540 hc        1 MOL      0.034332
    120 H56         2.0850    0.1040    6.2970 hc        1 MOL      0.034332
    121 N11        -0.6110    2.0180    2.4590 n         1 MOL     -0.588345
    122 C40        -1.7580    1.0860    2.3530 c3        1 MOL     -0.047236
    123 C41        -2.8100    1.3880    1.2440 c         1 MOL      0.432361
    124 O16        -3.8180    0.7050    1.0930 o         1 MOL     -0.535410
    125 C42        -2.4420    0.9920    3.7620 c3        1 MOL      0.327264
    126 O17        -1.4750    0.8410    4.7520 oh        1 MOL     -0.591294
    127 H57        -0.4620    2.5140    3.3280 hn        1 MOL      0.289242
    128 H58        -1.2700    0.1400    2.0920 h1        1 MOL      0.156142
    129 H59        -3.2240    0.2370    3.8580 h1        1 MOL      0.023471
    130 H60        -2.9900    1.9140    3.9660 h1        1 MOL      0.023471
    131 H61        -1.4740    1.7250    5.1300 ho        1 MOL      0.372606
    132 N12        -2.5080    2.3420    0.3240 n         1 MOL     -0.264005
    133 C43        -3.5690    2.8360   -0.6000 c3        1 MOL     -0.007068
    134 C44        -3.4010    2.1200   -1.9610 c         1 MOL      0.818402
    135 O18        -2.2760    2.1070   -2.4920 o         1 MOL     -0.641673
    136 C45        -3.2000    4.3020   -0.8780 c3        1 MOL     -0.360843
    137 H62        -1.5640    2.7000    0.3760 hn        1 MOL      0.227883
    138 H63        -4.5850    2.8160   -0.2150 h1        1 MOL      0.111263
    139 H64        -2.2100    4.4490   -1.3050 hc        1 MOL      0.109761
    140 H65        -3.8390    4.6970   -1.6720 hc        1 MOL      0.109761
    141 H66        -3.3250    4.9540   -0.0040 hc        1 MOL      0.109761
    142 N13        -4.3670    1.5330   -2.6360 n         1 MOL     -0.812862
    143 C46        -5.6620    1.1320   -2.0770 c3        1 MOL      0.553135
    144 C47        -6.7160    2.2460   -2.1690 c         1 MOL      0.301303
    145 O19        -6.7140    3.2390   -2.9580 o         1 MOL     -0.526941
    146 C48        -6.1690   -0.1260   -2.7820 c3        1 MOL     -0.180934
    147 H67        -4.0630    1.1870   -3.5400 hn        1 MOL      0.375137
    148 H68        -5.4830    0.9410   -1.0230 h1        1 MOL     -0.009903
    149 H69        -5.9760   -0.0760   -3.8510 hc        1 MOL      0.036191
    150 H70        -5.5800   -0.9460   -2.3670 hc        1 MOL      0.036191
    151 H71        -7.2240   -0.3410   -2.6190 hc        1 MOL      0.036191
    152 N14        -7.7240    2.1720   -1.3100 n         1 MOL     -0.174895
    153 C49        -7.8640    1.5610    0.0040 c3        1 MOL     -0.676507
    154 C50        -8.0340    2.6070    1.2410 c         1 MOL      0.678014
    155 O20        -7.8550    2.0960    2.4000 o         1 MOL     -0.546772
    156 C51        -9.1260    0.5910   -0.1040 c3        1 MOL      0.253289
    157 C52       -10.4990    1.2220   -0.1890 c3        1 MOL     -0.310950
    158 C53       -10.7080    2.1620   -1.3710 c         1 MOL      0.744035
    159 O21       -10.3710    3.3790   -1.3970 o         1 MOL     -0.684055
    160 O22       -11.1250    1.6280   -2.4080 o         1 MOL     -0.684055
    161 H72        -8.4100    2.8890   -1.4690 hn        1 MOL      0.247609
    162 H73        -7.0080    0.9010    0.1550 h1        1 MOL      0.231036
    163 H74        -9.1180   -0.0120    0.8060 hc        1 MOL     -0.007040
    164 H75        -8.8470   -0.2490   -0.7390 hc        1 MOL     -0.007040
    165 H76       -10.6470    1.9040    0.6530 hc        1 MOL      0.056678
    166 H77       -11.1560    0.3560   -0.2320 hc        1 MOL      0.056678
    167 N15        -8.2450    3.9090    0.9340 n         1 MOL     -0.329419
    168 C54        -8.2020    5.0060    1.8840 c3        1 MOL     -0.108704
    169 H78        -9.2090    5.2110    2.2470 h1        1 MOL      0.072399
    170 H79        -7.5610    4.7360    2.7230 h1        1 MOL      0.072399
    171 H80        -7.8050    5.8960    1.3950 h1        1 MOL      0.072399
    172 H81        -8.3200    4.1720   -0.0380 hn        1 MOL      0.290773
    173 Ca1         1.9530   -0.1550   -0.9970 Ca        1 MOL      1.787768
    174 O23         3.4270    0.9320   -3.1190 oh        1 MOL     -0.899293
    175 H82         3.9760    1.7150   -3.1850 ho        1 MOL      0.431488
    176 H83         3.8360    0.3090   -3.7140 ho        1 MOL      0.431488
    177 O24         0.2900    1.5450   -2.1710 oh        1 MOL     -0.899293
    178 H84        -0.6010    1.7240   -2.4620 ho        1 MOL      0.431488
    179 H85         0.7710    2.3570   -2.3160 ho        1 MOL      0.431488
@<TRIPOS>BOND
     1    1    2 1   
     2    1    4 1   
     3    1    5 1   
     4    1    6 1   
     5    2    3 2   
     6    2    7 1   
     7    7    8 1   
     8    7   15 1   
     9    8    9 1   
    10    8   11 1   
    11    8   16 1   
    12    9   10 2   
    13    9   19 1   
    14   11   12 1   
    15   11   17 1   
    16   11   18 1   
    17   12   13 1   
    18   12   14 1   
    19   19   20 1   
    20   19   28 1   
    21   20   21 1   
    22   20   23 1   
    23   20   29 1   
    24   21   22 2   
    25   21   41 1   
    26   23   24 1   
    27   23   30 1   
    28   23   31 1   
    29   24   25 1   
    30   24   32 1   
    31   24   33 1   
    32   25   26 1   
    33   25   34 1   
    34   25   35 1   
    35   26   27 1   
    36   26   36 1   
    37   26   37 1   
    38   27   38 1   
    39   27   39 1   
    40   27   40 1   
    41   41   42 1   
    42   41   49 1   
    43   42   43 1   
    44   42   45 1   
    45   42   50 1   
    46   43   44 2   
    47   43   53 1   
    48   45   46 1   
    49   45   51 1   
    50   45   52 1   
    51   46   47 1   
    52   46   48 1   
    53   53   54 1   
    54   53   57 1   
    55   54   55 1   
    56   54   58 1   
    57   54   59 1   
    58   55   56 2   
    59   55   60 1   
    60   60   61 1   
    61   60   68 1   
    62   61   62 1   
    63   61   64 1   
    64   61   69 1   
    65   62   63 2   
    66   62   74 1   
    67   64   65 1   
    68   64   70 1   
    69   64   71 1   
    70   65   66 1   
    71   65   67 2   
    72   66   72 1   
    73   66   73 1   
    74   74   75 1   
    75   74   78 1   
    76   75   76 1   
    77   75   79 1   
    78   75   80 1   
    79   76   77 2   
    80   76   81 1   
    81   81   82 1   
    82   81   93 1   
    83   82   83 1   
    84   82   85 1   
    85   82   94 1   
    86   83   84 2   
    87   83  102 1   
    88   85   86 1   
    89   85   95 1   
    90   85   96 1   
    91   86   87 ar  
    92   86   88 ar  
    93   87   89 ar  
    94   87   97 1   
    95   88   90 ar  
    96   88   98 1   
    97   89   91 ar  
    98   89   99 1   
    99   90   91 ar  
   100   90  100 1   
   101   91   92 1   
   102   92  101 1   
   103  102  103 1   
   104  102  110 1   
   105  103  104 1   
   106  103  106 1   
   107  103  111 1   
   108  104  105 2   
   109  104  121 1   
   110  106  107 1   
   111  106  108 1   
   112  106  112 1   
   113  107  109 1   
   114  107  113 1   
   115  107  114 1   
   116  108  115 1   
   117  108  116 1   
   118  108  117 1   
   119  109  118 1   
   120  109  119 1   
   121  109  120 1   
   122  121  122 1   
   123  121  127 1   
   124  122  123 1   
   125  122  125 1   
   126  122  128 1   
   127  123  124 2   
   128  123  132 1   
   129  125  126 1   
   130  125  129 1   
   131  125  130 1   
   132  126  131 1   
   133  132  133 1   
   134  132  137 1   
   135  133  134 1   
   136  133  136 1   
   137  133  138 1   
   138  134  135 2   
   139  134  142 1   
   140  136  139 1   
   141  136  140 1   
   142  136  141 1   
   143  142  143 1   
   144  142  147 1   
   145  143  144 1   
   146  143  146 1   
   147  143  148 1   
   148  144  145 2   
   149  144  152 1   
   150  146  149 1   
   151  146  150 1   
   152  146  151 1   
   153  152  153 1   
   154  152  161 1   
   155  153  154 1   
   156  153  156 1   
   157  153  162 1   
   158  154  155 2   
   159  154  167 1   
   160  156  157 1   
   161  156  163 1   
   162  156  164 1   
   163  157  158 1   
   164  157  165 1   
   165  157  166 1   
   166  158  159 1   
   167  158  160 1   
   168  167  168 1   
   169  167  172 1   
   170  168  169 1   
   171  168  170 1   
   172  168  171 1   
   173  174  175 1   
   174  174  176 1   
   175  177  178 1   
   176  177  179 1   
@<TRIPOS>SUBSTRUCTURE
     1 MOL         1 TEMP              0 ****  ****    0 ROOT
