@<TRIPOS>MOLECULE
MOL
  185   180     1     0     0
SMALL
resp


@<TRIPOS>ATOM
      1 C1         -5.5040    1.0630   -3.6570 c3        1 MOL     -0.365323
      2 C2         -6.1050    1.1760   -2.2630 c         1 MOL      0.714909
      3 O1         -5.4780    0.9090   -1.2780 o         1 MOL     -0.432457
      4 H1         -4.5250    0.5890   -3.5920 hc        1 MOL      0.094388
      5 H2         -6.1580    0.4600   -4.2870 hc        1 MOL      0.094388
      6 H3         -5.3980    2.0570   -4.0890 hc        1 MOL      0.094388
      7 N1         -7.3850    1.6180   -2.1870 n         1 MOL     -0.654390
      8 C3         -8.1890    1.8500   -0.9700 c3        1 MOL      0.083441
      9 C4         -8.3360    0.6350    0.0070 c         1 MOL      0.490209
     10 O2         -8.9040    0.7650    1.1140 o         1 MOL     -0.516707
     11 C5         -7.8940    3.2040   -0.2800 c3        1 MOL     -0.286321
     12 C6         -7.8620    4.3960   -1.2660 c         1 MOL      0.770009
     13 O3         -7.1820    5.4100   -0.9180 o         1 MOL     -0.675574
     14 O4         -8.5820    4.4560   -2.2910 o         1 MOL     -0.675574
     15 H4         -7.8530    1.8040   -3.0550 hn        1 MOL      0.338190
     16 H5         -9.2320    2.0270   -1.2360 h1        1 MOL      0.076989
     17 H6         -6.9980    3.0450    0.3150 hc        1 MOL      0.087889
     18 H7         -8.7610    3.4050    0.3520 hc        1 MOL      0.087889
     19 N2         -7.8700   -0.5390   -0.4160 n         1 MOL     -0.392640
     20 C7         -7.8840   -1.8290    0.3530 c3        1 MOL      0.221522
     21 C8         -6.4820   -2.3890    0.6030 c         1 MOL      0.464752
     22 O5         -6.3210   -3.3950    1.3110 o         1 MOL     -0.583437
     23 C9         -8.6960   -2.8360   -0.4720 c3        1 MOL     -0.108478
     24 C10        -9.3150   -3.9700    0.3900 c3        1 MOL      0.099123
     25 C11        -9.9600   -5.0480   -0.4820 c3        1 MOL     -0.179869
     26 C12       -11.3040   -4.6070   -1.0730 c3        1 MOL      0.129699
     27 N3        -11.7750   -5.5840   -1.9910 n4        1 MOL     -0.470312
     28 H8         -7.5460   -0.7100   -1.3480 hn        1 MOL      0.174995
     29 H9         -8.3430   -1.5480    1.3000 h1        1 MOL      0.059261
     30 H10        -8.1260   -3.3010   -1.2830 hc        1 MOL      0.014784
     31 H11        -9.5330   -2.2330   -0.8190 hc        1 MOL      0.014784
     32 H12       -10.0100   -3.5370    1.1200 hc        1 MOL      0.013858
     33 H13        -8.5090   -4.4240    0.9660 hc        1 MOL      0.013858
     34 H14       -10.0570   -5.9160    0.1560 hc        1 MOL      0.076185
     35 H15        -9.2370   -5.2720   -1.2710 hc        1 MOL      0.076185
     36 H16       -11.0650   -3.7060   -1.6440 hx        1 MOL      0.067601
     37 H17       -12.0650   -4.3330   -0.3390 hx        1 MOL      0.067601
     38 H18       -12.4450   -5.1650   -2.6310 hn        1 MOL      0.344738
     39 H19       -11.0290   -5.8730   -2.5960 hn        1 MOL      0.344738
     40 H20       -12.1840   -6.3700   -1.5010 hn        1 MOL      0.344738
     41 N4         -5.4480   -1.6950    0.1010 n         1 MOL     -0.352232
     42 C13        -4.0480   -2.1170    0.4720 c3        1 MOL     -0.067434
     43 C14        -3.7330   -1.9260    1.9370 c         1 MOL      0.719958
     44 O6         -4.0140   -0.8670    2.5050 o         1 MOL     -0.517825
     45 C15        -3.1680   -1.3360   -0.4910 c3        1 MOL     -0.036913
     46 C16        -1.6400   -1.5810   -0.3290 c         1 MOL      0.708927
     47 O7         -0.9550   -0.7230    0.2240 o         1 MOL     -0.788496
     48 O8         -1.1230   -2.6310   -0.7600 o         1 MOL     -0.788496
     49 H21        -5.6050   -0.8960   -0.4990 hn        1 MOL      0.188476
     50 H22        -3.9130   -3.1690    0.2350 h1        1 MOL      0.071670
     51 H23        -3.3410   -0.2770   -0.3170 hc        1 MOL      0.015978
     52 H24        -3.4730   -1.5700   -1.5130 hc        1 MOL      0.015978
     53 N5         -3.1710   -2.9050    2.6380 n         1 MOL     -0.355813
     54 C17        -3.2150   -3.0530    4.1010 c3        1 MOL     -0.030254
     55 C18        -2.4780   -1.9160    4.7340 c         1 MOL      0.496263
     56 O9         -3.0440   -1.2750    5.6440 o         1 MOL     -0.521288
     57 H25        -3.0530   -3.7890    2.1440 hn        1 MOL      0.257253
     58 H26        -2.7050   -3.9530    4.4350 h1        1 MOL      0.076264
     59 H27        -4.2130   -3.0440    4.5290 h1        1 MOL      0.076264
     60 N6         -1.2740   -1.5670    4.1770 n         1 MOL     -0.432049
     61 C19        -0.4810   -0.3640    4.5750 c3        1 MOL      0.081682
     62 C20        -0.9010    1.0860    3.9610 c         1 MOL      0.388289
     63 O10        -0.2360    2.0310    4.3400 o         1 MOL     -0.501203
     64 C21         0.9890   -0.6300    4.2310 c3        1 MOL     -0.340041
     65 C22         1.3360   -0.3060    2.8010 c         1 MOL      0.658144
     66 N7          2.0910    0.7320    2.5810 n         1 MOL     -0.775515
     67 O11         1.0940   -1.0470    1.8850 o         1 MOL     -0.617997
     68 H28        -0.9400   -2.0080    3.3380 hn        1 MOL      0.262131
     69 H29        -0.6360   -0.2790    5.6530 h1        1 MOL      0.099040
     70 H30         1.1690   -1.6550    4.5490 hc        1 MOL      0.122467
     71 H31         1.5700   -0.0170    4.9210 hc        1 MOL      0.122467
     72 H32         2.0560    1.4130    3.3220 hn        1 MOL      0.355069
     73 H33         2.3050    0.9530    1.6290 hn        1 MOL      0.355069
     74 N8         -2.0080    1.1000    3.1080 n         1 MOL     -0.151004
     75 C23        -2.4140    2.2920    2.4540 c3        1 MOL     -0.187835
     76 C24        -1.4140    2.9980    1.5230 c         1 MOL      0.600774
     77 O12        -1.2180    4.1920    1.6750 o         1 MOL     -0.528660
     78 H34        -2.4910    0.2290    2.9330 hn        1 MOL      0.177159
     79 H35        -2.7960    3.0250    3.1560 h1        1 MOL      0.110601
     80 H36        -3.3260    2.0220    1.9210 h1        1 MOL      0.110601
     81 N9         -0.6340    2.2570    0.6920 n         1 MOL     -0.575231
     82 C25         0.1790    2.8110   -0.4070 c3        1 MOL      0.361693
     83 C26         1.5500    2.1170   -0.5410 c         1 MOL      0.211015
     84 O13         1.6880    0.8860   -0.3720 o         1 MOL     -0.168727
     85 C27        -0.6180    2.9570   -1.7230 c3        1 MOL     -0.095943
     86 C28        -1.8190    3.9340   -1.6410 ca        1 MOL      0.005139
     87 C29        -1.5790    5.2710   -1.7460 ca        1 MOL     -0.217287
     88 C30        -3.1070    3.4760   -1.3160 ca        1 MOL     -0.217287
     89 C31        -2.6480    6.2000   -1.5970 ca        1 MOL     -0.153868
     90 C32        -4.1630    4.3850   -1.0920 ca        1 MOL     -0.153868
     91 C33        -3.9200    5.7480   -1.3090 ca        1 MOL      0.338827
     92 O14        -4.9230    6.6330   -1.0000 oh        1 MOL     -0.556226
     93 H37        -0.7760    1.2530    0.7170 hn        1 MOL      0.342603
     94 H38         0.4340    3.8340   -0.1330 h1        1 MOL      0.021730
     95 H39        -1.0200    1.9750   -1.9600 hc        1 MOL      0.004705
     96 H40         0.1200    3.2990   -2.4510 hc        1 MOL      0.004705
     97 H41        -0.5580    5.6140   -1.8240 ha        1 MOL      0.116812
     98 H42        -3.3300    2.4270   -1.2710 ha        1 MOL      0.116812
     99 H43        -2.5490    7.2790   -1.6260 ha        1 MOL      0.109311
    100 H44        -5.1490    4.0390   -0.8300 ha        1 MOL      0.109311
    101 H45        -5.7460    6.2350   -0.7110 ho        1 MOL      0.410227
    102 N10         2.6140    2.9120   -0.8360 n         1 MOL     -0.631824
    103 C34         3.8770    2.3290   -1.2770 c3        1 MOL      0.265169
    104 C35         4.7090    1.9420   -0.0470 c         1 MOL      0.029247
    105 O15         5.0800    0.7900    0.0060 o         1 MOL     -0.250958
    106 C36         4.6720    3.0890   -2.3350 c3        1 MOL     -0.058543
    107 C37         3.7640    3.3110   -3.6100 c3        1 MOL      0.091719
    108 C38         6.0780    2.5060   -2.5830 c3        1 MOL     -0.194319
    109 C39         3.0860    2.2050   -4.2840 c3        1 MOL     -0.451462
    110 H46         2.3490    3.8270   -1.1520 hn        1 MOL      0.354198
    111 H47         3.6170    1.3970   -1.7830 h1        1 MOL      0.044024
    112 H48         4.9530    4.0840   -1.9900 hc        1 MOL      0.007649
    113 H49         4.4050    3.7720   -4.3620 hc        1 MOL      0.024454
    114 H50         3.0730    4.1160   -3.3660 hc        1 MOL      0.024454
    115 H51         6.0050    1.4210   -2.6070 hc        1 MOL      0.063518
    116 H52         6.4400    2.7250   -3.5850 hc        1 MOL      0.063518
    117 H53         6.7940    2.7200   -1.7840 hc        1 MOL      0.063518
    118 H54         2.6860    2.5590   -5.2330 hc        1 MOL      0.132478
    119 H55         3.8570    1.4910   -4.5860 hc        1 MOL      0.132478
    120 H56         2.3190    1.8880   -3.5720 hc        1 MOL      0.132478
    121 N11         5.0530    2.8370    0.8830 n         1 MOL     -0.024801
    122 C40         5.7450    2.5060    2.1060 c3        1 MOL     -0.162249
    123 C41         7.1300    1.9650    1.8890 c         1 MOL      0.570207
    124 O16         7.6890    1.2490    2.7450 o         1 MOL     -0.509916
    125 C42         5.8210    3.7230    3.0690 c3        1 MOL      0.203849
    126 O17         6.5860    4.8270    2.5700 oh        1 MOL     -0.676760
    127 H57         4.8020    3.7960    0.7370 hn        1 MOL      0.240570
    128 H58         5.1830    1.7270    2.6110 h1        1 MOL      0.060464
    129 H59         6.2880    3.3720    3.9950 h1        1 MOL      0.040068
    130 H60         4.7940    4.0370    3.2900 h1        1 MOL      0.040068
    131 H61         6.7490    5.5320    3.1930 ho        1 MOL      0.446026
    132 N12         7.7330    2.3250    0.7810 n         1 MOL     -0.393208
    133 C43         8.9580    1.6780    0.1820 c3        1 MOL      0.274340
    134 C44         8.9600    0.0990    0.4250 c         1 MOL      0.436815
    135 O18        10.0080   -0.5120    0.7070 o         1 MOL     -0.490985
    136 C45        10.1990    2.4020    0.6930 c3        1 MOL     -0.388686
    137 H62         7.2770    3.0140    0.1890 hn        1 MOL      0.229057
    138 H63         8.7970    1.7550   -0.8960 h1        1 MOL      0.018064
    139 H64        11.0650    2.0110    0.1550 hc        1 MOL      0.111506
    140 H65        10.1430    3.4360    0.3460 hc        1 MOL      0.111506
    141 H66        10.2980    2.2700    1.7790 hc        1 MOL      0.111506
    142 N13         7.7290   -0.4580    0.2620 n         1 MOL     -0.446216
    143 C46         7.4650   -1.8790    0.5180 c3        1 MOL      0.236014
    144 C47         6.5390   -2.5220   -0.6160 c         1 MOL      0.343880
    145 O19         5.8750   -1.7850   -1.3020 o         1 MOL     -0.428531
    146 C48         7.0070   -1.9790    1.9650 c3        1 MOL     -0.092915
    147 H67         6.9450    0.1170   -0.0230 hn        1 MOL      0.135738
    148 H68         8.4580   -2.3380    0.6050 h1        1 MOL      0.015649
    149 H69         6.6760   -2.9780    2.2440 hc        1 MOL      0.039519
    150 H70         7.7510   -1.6980    2.7060 hc        1 MOL      0.039519
    151 H71         6.1030   -1.3720    2.0880 hc        1 MOL      0.039519
    152 N14         6.5570   -3.8690   -0.6970 n         1 MOL     -0.419415
    153 C49         5.7850   -4.6210   -1.6910 c3        1 MOL     -0.066641
    154 C50         6.0630   -4.2560   -3.2260 c         1 MOL      0.435414
    155 O20         5.1630   -4.3380   -4.0360 o         1 MOL     -0.497955
    156 C51         4.2690   -4.5710   -1.3410 c3        1 MOL      0.099286
    157 C52         4.0180   -5.1460    0.1130 c3        1 MOL     -0.029222
    158 C53         2.5690   -4.8120    0.6510 c         1 MOL      0.634118
    159 O21         2.1710   -5.3400    1.7160 o         1 MOL     -0.678173
    160 O22         1.8270   -4.0650   -0.0630 o         1 MOL     -0.678173
    161 H72         7.3180   -4.3420   -0.2310 hn        1 MOL      0.292592
    162 H73         6.0450   -5.6690   -1.5340 h1        1 MOL      0.086827
    163 H74         3.6640   -5.2090   -1.9730 hc        1 MOL     -0.003180
    164 H75         3.9800   -3.5130   -1.3230 hc        1 MOL     -0.003180
    165 H76         4.6710   -4.6630    0.8370 hc        1 MOL     -0.019174
    166 H77         4.1790   -6.2210    0.1350 hc        1 MOL     -0.019174
    167 N15         7.3110   -3.9630   -3.6230 n         1 MOL     -0.298145
    168 C54         7.5930   -3.4050   -4.9930 c3        1 MOL     -0.148501
    169 H78         7.8450   -4.2190   -5.6720 h1        1 MOL      0.093375
    170 H79         6.7080   -2.8860   -5.3640 h1        1 MOL      0.093375
    171 H80         8.4280   -2.7060   -4.9380 h1        1 MOL      0.093375
    172 H81         8.0550   -4.1170   -2.9470 hn        1 MOL      0.239155
    173 Ca1         1.3590   -1.6770   -0.8220 Ca        1 MOL      1.661358
    174 O23         1.0760   -3.1250   -3.0160 oh        1 MOL     -0.836678
    175 H82         0.2360   -3.0940   -3.4720 ho        1 MOL      0.411926
    176 H83         1.4150   -3.9980   -3.2020 ho        1 MOL      0.411926
    177 O24         3.6780   -1.3600    0.5710 oh        1 MOL     -0.836678
    178 H84         3.6760   -1.5010    1.5190 ho        1 MOL      0.411926
    179 H85         4.3240   -0.6660    0.4380 ho        1 MOL      0.411926
    180 O25         0.3470   -0.4030   -2.9600 oh        1 MOL     -0.836678
    181 H86        -0.3370   -0.8760   -3.4330 ho        1 MOL      0.411926
    182 H87         0.5380    0.3530   -3.5210 ho        1 MOL      0.411926
    183 O26         3.4260   -0.9720   -2.3280 oh        1 MOL     -0.836678
    184 H88         4.2740   -1.0560   -1.8960 ho        1 MOL      0.411926
    185 H89         3.6040   -1.0760   -3.2590 ho        1 MOL      0.411926
@<TRIPOS>BOND
     1    1    2 1   
     2    1    4 1   
     3    1    5 1   
     4    1    6 1   
     5    2    3 2   
     6    2    7 1   
     7    7    8 1   
     8    7   15 1   
     9    8    9 1   
    10    8   11 1   
    11    8   16 1   
    12    9   10 2   
    13    9   19 1   
    14   11   12 1   
    15   11   17 1   
    16   11   18 1   
    17   12   13 1   
    18   12   14 1   
    19   19   20 1   
    20   19   28 1   
    21   20   21 1   
    22   20   23 1   
    23   20   29 1   
    24   21   22 2   
    25   21   41 1   
    26   23   24 1   
    27   23   30 1   
    28   23   31 1   
    29   24   25 1   
    30   24   32 1   
    31   24   33 1   
    32   25   26 1   
    33   25   34 1   
    34   25   35 1   
    35   26   27 1   
    36   26   36 1   
    37   26   37 1   
    38   27   38 1   
    39   27   39 1   
    40   27   40 1   
    41   41   42 1   
    42   41   49 1   
    43   42   43 1   
    44   42   45 1   
    45   42   50 1   
    46   43   44 2   
    47   43   53 1   
    48   45   46 1   
    49   45   51 1   
    50   45   52 1   
    51   46   47 1   
    52   46   48 1   
    53   53   54 1   
    54   53   57 1   
    55   54   55 1   
    56   54   58 1   
    57   54   59 1   
    58   55   56 2   
    59   55   60 1   
    60   60   61 1   
    61   60   68 1   
    62   61   62 1   
    63   61   64 1   
    64   61   69 1   
    65   62   63 2   
    66   62   74 1   
    67   64   65 1   
    68   64   70 1   
    69   64   71 1   
    70   65   66 1   
    71   65   67 2   
    72   66   72 1   
    73   66   73 1   
    74   74   75 1   
    75   74   78 1   
    76   75   76 1   
    77   75   79 1   
    78   75   80 1   
    79   76   77 2   
    80   76   81 1   
    81   81   82 1   
    82   81   93 1   
    83   82   83 1   
    84   82   85 1   
    85   82   94 1   
    86   83   84 2   
    87   83  102 1   
    88   85   86 1   
    89   85   95 1   
    90   85   96 1   
    91   86   87 ar  
    92   86   88 ar  
    93   87   89 ar  
    94   87   97 1   
    95   88   90 ar  
    96   88   98 1   
    97   89   91 ar  
    98   89   99 1   
    99   90   91 ar  
   100   90  100 1   
   101   91   92 1   
   102   92  101 1   
   103  102  103 1   
   104  102  110 1   
   105  103  104 1   
   106  103  106 1   
   107  103  111 1   
   108  104  105 2   
   109  104  121 1   
   110  106  107 1   
   111  106  108 1   
   112  106  112 1   
   113  107  109 1   
   114  107  113 1   
   115  107  114 1   
   116  108  115 1   
   117  108  116 1   
   118  108  117 1   
   119  109  118 1   
   120  109  119 1   
   121  109  120 1   
   122  121  122 1   
   123  121  127 1   
   124  122  123 1   
   125  122  125 1   
   126  122  128 1   
   127  123  124 2   
   128  123  132 1   
   129  125  126 1   
   130  125  129 1   
   131  125  130 1   
   132  126  131 1   
   133  132  133 1   
   134  132  137 1   
   135  133  134 1   
   136  133  136 1   
   137  133  138 1   
   138  134  135 2   
   139  134  142 1   
   140  136  139 1   
   141  136  140 1   
   142  136  141 1   
   143  142  143 1   
   144  142  147 1   
   145  143  144 1   
   146  143  146 1   
   147  143  148 1   
   148  144  145 2   
   149  144  152 1   
   150  146  149 1   
   151  146  150 1   
   152  146  151 1   
   153  152  153 1   
   154  152  161 1   
   155  153  154 1   
   156  153  156 1   
   157  153  162 1   
   158  154  155 2   
   159  154  167 1   
   160  156  157 1   
   161  156  163 1   
   162  156  164 1   
   163  157  158 1   
   164  157  165 1   
   165  157  166 1   
   166  158  159 1   
   167  158  160 1   
   168  167  168 1   
   169  167  172 1   
   170  168  169 1   
   171  168  170 1   
   172  168  171 1   
   173  174  175 1   
   174  174  176 1   
   175  177  178 1   
   176  177  179 1   
   177  180  181 1   
   178  180  182 1   
   179  183  184 1   
   180  183  185 1   
@<TRIPOS>SUBSTRUCTURE
     1 MOL         1 TEMP              0 ****  ****    0 ROOT
