@<TRIPOS>MOLECULE
MOL
  195   189     1     0     0
SMALL
resp


@<TRIPOS>ATOM
      1 C1          4.1490   -1.8680   -2.7240 c3        1 MOL     -0.438383
      2 C2          3.0840   -2.5320   -1.7330 c         1 MOL      0.575427
      3 O1          2.0710   -1.9500   -1.3020 o         1 MOL     -0.467021
      4 H1          4.7270   -2.6520   -3.2130 hc        1 MOL      0.116297
      5 H2          3.6270   -1.2780   -3.4780 hc        1 MOL      0.116297
      6 H3          4.8210   -1.2220   -2.1570 hc        1 MOL      0.116297
      7 N1          3.3630   -3.7310   -1.2760 n         1 MOL     -0.372694
      8 C3          2.5670   -4.4230   -0.2870 c3        1 MOL      0.001843
      9 C4          1.0430   -4.7870   -0.4690 c         1 MOL      0.777181
     10 O2          0.3130   -5.0270    0.5110 o         1 MOL     -0.540604
     11 C5          2.8160   -3.8820    1.1520 c3        1 MOL     -0.764126
     12 C6          4.3230   -3.7810    1.4370 c         1 MOL      1.046697
     13 O3          5.0600   -4.7820    1.3650 o         1 MOL     -0.789382
     14 O4          4.9610   -2.7250    1.6080 o         1 MOL     -0.789382
     15 H4          4.2950   -4.0200   -1.5180 hn        1 MOL      0.217922
     16 H5          2.9120   -5.4620   -0.2520 h1        1 MOL      0.064547
     17 H6          2.4190   -4.5800    1.8860 hc        1 MOL      0.213303
     18 H7          2.4010   -2.8760    1.1930 hc        1 MOL      0.213303
     19 N2          0.5690   -4.6590   -1.6550 n         1 MOL     -0.655514
     20 C7         -0.8890   -4.7930   -2.0740 c3        1 MOL      0.041203
     21 C8         -1.5260   -6.1360   -1.6200 c         1 MOL      0.445953
     22 O5         -0.8180   -7.1850   -1.6750 o         1 MOL     -0.582140
     23 C9         -0.9840   -4.6420   -3.5970 c3        1 MOL      0.279566
     24 C10        -0.0510   -5.5520   -4.3850 c3        1 MOL      0.089293
     25 C11        -0.7480   -3.1410   -4.0040 c3        1 MOL     -0.540480
     26 C12        -0.5590   -5.8150   -5.8470 c3        1 MOL     -0.205694
     27 H8          1.2310   -4.4330   -2.3860 hn        1 MOL      0.243227
     28 H9         -1.3960   -3.8800   -1.7480 h1        1 MOL      0.162669
     29 H10        -2.0190   -4.8360   -3.8900 hc        1 MOL      0.006028
     30 H11         0.0660   -6.5180   -3.8990 hc        1 MOL     -0.002061
     31 H12         0.8980   -5.0410   -4.5490 hc        1 MOL     -0.002061
     32 H13        -0.8730   -3.0450   -5.0770 hc        1 MOL      0.126860
     33 H14        -1.4050   -2.4760   -3.4250 hc        1 MOL      0.126860
     34 H15         0.2680   -2.7580   -3.8990 hc        1 MOL      0.126860
     35 H16        -1.5850   -6.1570   -5.6880 hc        1 MOL      0.033641
     36 H17        -0.6170   -4.9520   -6.5010 hc        1 MOL      0.033641
     37 H18         0.0130   -6.5800   -6.3790 hc        1 MOL      0.033641
     38 N3         -2.7540   -6.2570   -1.1950 n         1 MOL     -0.394162
     39 C13        -3.6910   -5.2020   -0.9390 c3        1 MOL      0.004412
     40 C14        -4.6080   -5.6900    0.2510 c         1 MOL      0.509266
     41 O6         -5.1720   -6.8110    0.1200 o         1 MOL     -0.547137
     42 C15        -4.5250   -4.9140   -2.2140 c3        1 MOL     -0.312263
     43 C16        -5.8340   -4.1600   -1.9410 c         1 MOL      0.869294
     44 O7         -6.7220   -4.4030   -2.7180 o         1 MOL     -0.747648
     45 O8         -6.0100   -3.3670   -0.9920 o         1 MOL     -0.747648
     46 H19        -3.0190   -7.2200   -1.0700 hn        1 MOL      0.293688
     47 H20        -3.1140   -4.3960   -0.4900 h1        1 MOL      0.067113
     48 H21        -4.7960   -5.8770   -2.6360 hc        1 MOL      0.064766
     49 H22        -3.8990   -4.3160   -2.8890 hc        1 MOL      0.064766
     50 N4         -4.8060   -4.9150    1.3610 n         1 MOL     -0.203810
     51 C17        -5.6570   -5.2880    2.4800 c3        1 MOL     -0.325403
     52 C18        -6.2290   -4.0730    3.1960 c         1 MOL      0.579726
     53 O9         -6.8480   -4.1340    4.2670 o         1 MOL     -0.621590
     54 H23        -4.2640   -4.0680    1.3870 hn        1 MOL      0.194334
     55 H24        -5.0550   -5.7900    3.2390 h1        1 MOL      0.142723
     56 H25        -6.4930   -5.9270    2.2180 h1        1 MOL      0.142723
     57 N5         -5.8540   -2.8500    2.7840 n         1 MOL     -0.258130
     58 C19        -6.2910   -1.5970    3.3250 c3        1 MOL      0.156528
     59 C20        -7.2880   -0.9360    2.3390 c         1 MOL      0.252840
     60 O10        -8.2170   -0.2070    2.7050 o         1 MOL     -0.526465
     61 C21        -5.0280   -0.7010    3.3910 c3        1 MOL     -0.451862
     62 C22        -4.1240   -0.7530    2.1450 c         1 MOL      0.832013
     63 O11        -3.5300   -1.7170    1.7420 o         1 MOL     -0.690156
     64 O12        -3.9820    0.2790    1.4710 o         1 MOL     -0.690156
     65 H26        -5.2340   -2.8730    1.9960 hn        1 MOL      0.185142
     66 H27        -6.7300   -1.6890    4.3240 h1        1 MOL      0.085380
     67 H28        -4.4980   -1.1770    4.2160 hc        1 MOL      0.093417
     68 H29        -5.2850    0.3350    3.6200 hc        1 MOL      0.093417
     69 N6         -7.1620   -1.1850    0.9970 n         1 MOL     -0.059966
     70 C23        -7.9410   -0.3700   -0.0000 c3        1 MOL     -0.220149
     71 C24        -7.6890    1.1590   -0.0480 c         1 MOL      0.672262
     72 O13        -8.3890    1.8400   -0.8150 o         1 MOL     -0.643608
     73 H30        -6.5430   -1.9100    0.6740 hn        1 MOL      0.150722
     74 H31        -9.0290   -0.4200    0.0780 h1        1 MOL      0.102847
     75 H32        -7.5860   -0.7570   -0.9530 h1        1 MOL      0.102847
     76 N7         -6.7910    1.6910    0.7870 n         1 MOL     -0.250074
     77 C25        -6.5790    3.1310    0.9870 c3        1 MOL     -0.062343
     78 C26        -6.3300    4.1060   -0.3020 c         1 MOL      0.407291
     79 O14        -6.7130    5.2590   -0.2450 o         1 MOL     -0.472617
     80 C27        -7.7010    3.5970    1.9580 c3        1 MOL      0.211904
     81 C28        -7.4590    3.1400    3.4430 c3        1 MOL     -0.342344
     82 C29        -6.7060    4.1110    4.3730 c         1 MOL      0.687593
     83 N8         -6.5500    3.6620    5.5860 n         1 MOL     -0.831935
     84 O15        -6.1770    5.2140    4.0760 o         1 MOL     -0.576954
     85 H33        -6.0810    1.0670    1.1370 hn        1 MOL      0.122746
     86 H34        -5.6460    3.2280    1.5450 h1        1 MOL      0.094113
     87 H35        -8.6950    3.2510    1.6780 hc        1 MOL     -0.025945
     88 H36        -7.7520    4.6860    1.9490 hc        1 MOL     -0.025945
     89 H37        -6.7890    2.2870    3.4350 hc        1 MOL      0.108134
     90 H38        -8.4140    2.8940    3.9180 hc        1 MOL      0.108134
     91 H39        -6.8810    2.7560    5.9070 hn        1 MOL      0.361885
     92 H40        -5.8030    4.1560    6.0580 hn        1 MOL      0.361885
     93 N9         -5.8140    3.5360   -1.4320 n         1 MOL     -0.175443
     94 C30        -5.4060    4.1420   -2.6920 c3        1 MOL     -0.297175
     95 C31        -3.9080    3.9520   -3.0340 c         1 MOL      0.650089
     96 O16        -3.5350    4.4350   -4.1220 o         1 MOL     -0.575186
     97 C32        -6.4480    3.6850   -3.7770 c3        1 MOL      0.519576
     98 C33        -6.2340    2.1980   -4.1310 c3        1 MOL     -0.547981
     99 C34        -7.8930    3.9220   -3.5210 c3        1 MOL     -0.547981
    100 H41        -5.5890    2.5550   -1.3710 hn        1 MOL      0.237370
    101 H42        -5.4910    5.2260   -2.5870 h1        1 MOL      0.104780
    102 H43        -6.1950    4.1940   -4.7030 hc        1 MOL     -0.074800
    103 H44        -6.2310    1.5930   -3.2220 hc        1 MOL      0.130210
    104 H45        -7.0820    1.8980   -4.7460 hc        1 MOL      0.130210
    105 H46        -5.2650    2.2140   -4.6210 hc        1 MOL      0.130210
    106 H47        -7.9970    4.8930   -3.0440 hc        1 MOL      0.130210
    107 H48        -8.4320    3.8480   -4.4620 hc        1 MOL      0.130210
    108 H49        -8.2800    3.0920   -2.9190 hc        1 MOL      0.130210
    109 N10        -3.1570    3.1990   -2.2300 n         1 MOL     -0.535200
    110 C35        -1.7710    2.7430   -2.5010 c3        1 MOL      0.345431
    111 C36        -0.9350    2.6000   -1.2100 c         1 MOL      0.382229
    112 O17        -1.4490    2.4590   -0.1490 o         1 MOL     -0.425401
    113 C37        -1.7240    1.3020   -3.2030 c3        1 MOL     -0.159721
    114 C38        -0.3190    0.7390   -3.2530 c         1 MOL      0.497978
    115 N11        -0.1340   -0.3650   -2.5720 n         1 MOL     -0.580192
    116 O18         0.6820    1.2400   -3.7440 o         1 MOL     -0.559695
    117 H50        -3.6590    2.7780   -1.4610 hn        1 MOL      0.227579
    118 H51        -1.3950    3.4270   -3.2680 h1        1 MOL      0.017633
    119 H52        -2.2240    1.4910   -4.1580 hc        1 MOL      0.050262
    120 H53        -2.3140    0.5460   -2.6810 hc        1 MOL      0.050262
    121 H54        -0.8970   -0.8650   -2.1540 hn        1 MOL      0.312451
    122 H55         0.8310   -0.6000   -2.4270 hn        1 MOL      0.312451
    123 N12         0.4030    2.7850   -1.3780 n         1 MOL     -0.563611
    124 C39         1.2460    3.1410   -0.2480 c3        1 MOL      0.352595
    125 C40         2.6010    3.7170   -0.6780 c         1 MOL      0.392886
    126 O19         3.1000    3.2810   -1.7190 o         1 MOL     -0.505170
    127 C41         1.5830    1.9680    0.6390 c3        1 MOL     -0.074241
    128 C42         1.8780    2.3460    2.0460 ca        1 MOL     -0.031879
    129 C43         3.1690    2.3010    2.6010 ca        1 MOL     -0.130707
    130 C44         0.8060    2.7790    2.8830 ca        1 MOL     -0.130707
    131 C45         3.3870    2.7220    3.9240 ca        1 MOL     -0.244740
    132 C46         1.0700    3.1460    4.2020 ca        1 MOL     -0.244740
    133 C47         2.3260    3.0840    4.7410 ca        1 MOL      0.320439
    134 O20         2.5280    3.4560    6.0210 oh        1 MOL     -0.507738
    135 H56         0.6580    2.9270   -2.3480 hn        1 MOL      0.289358
    136 H57         0.7020    3.8590    0.3550 h1        1 MOL     -0.003893
    137 H58         2.4180    1.4250    0.1920 hc        1 MOL      0.066318
    138 H59         0.7440    1.2690    0.6630 hc        1 MOL      0.066318
    139 H60         3.9910    1.9630    1.9810 ha        1 MOL      0.140420
    140 H61        -0.1950    2.7930    2.4810 ha        1 MOL      0.140420
    141 H62         4.3610    2.7100    4.3820 ha        1 MOL      0.132589
    142 H63         0.2480    3.3370    4.8850 ha        1 MOL      0.132589
    143 H64         3.4680    3.4670    6.2420 ho        1 MOL      0.355313
    144 N13         3.2000    4.5790    0.1660 n         1 MOL     -0.588297
    145 C48         4.6310    5.0440   -0.0330 c3        1 MOL      0.336294
    146 C49         5.5260    4.4430    0.9900 c         1 MOL      0.419962
    147 O21         5.6880    5.0490    2.0390 o         1 MOL     -0.561047
    148 C50         4.6770    6.5680    0.1380 c3        1 MOL      0.011952
    149 C51         3.9030    7.2800   -0.9450 c3        1 MOL     -0.209675
    150 C52         4.2450    8.7610   -1.0120 c         1 MOL      0.700236
    151 O22         4.9070    9.2040   -1.9690 o         1 MOL     -0.698914
    152 O23         3.8970    9.4860   -0.0340 o         1 MOL     -0.698914
    153 H65         2.6010    4.9630    0.8830 hn        1 MOL      0.333212
    154 H66         4.8430    4.7140   -1.0490 h1        1 MOL      0.026448
    155 H67         5.7230    6.8640    0.0740 hc        1 MOL      0.036696
    156 H68         4.4010    6.8310    1.1560 hc        1 MOL      0.036696
    157 H69         2.8290    7.2300   -0.7540 hc        1 MOL      0.019304
    158 H70         4.2270    6.8440   -1.8950 hc        1 MOL      0.019304
    159 N14         6.2200    3.3290    0.8410 n         1 MOL     -0.467480
    160 C53         6.4020    2.5450   -0.2960 c3        1 MOL      0.069984
    161 C54         6.8580    3.4250   -1.5720 c         1 MOL      0.394877
    162 O24         7.8030    4.2140   -1.4010 o         1 MOL     -0.514557
    163 C55         7.3990    1.4380   -0.0340 c3        1 MOL     -0.146349
    164 C56         7.5390    0.4760   -1.2170 c3        1 MOL      0.015071
    165 C57         8.1020   -0.9550   -0.8770 c         1 MOL      0.746731
    166 O25         9.1780   -1.3110   -1.3650 o         1 MOL     -0.746574
    167 O26         7.5080   -1.7200   -0.0450 o         1 MOL     -0.746574
    168 H71         6.7860    3.0990    1.6510 hn        1 MOL      0.296740
    169 H72         5.4690    2.0690   -0.6170 h1        1 MOL      0.106796
    170 H73         6.9080    0.7670    0.6760 hc        1 MOL      0.046346
    171 H74         8.3810    1.7490    0.3330 hc        1 MOL      0.046346
    172 H75         8.1030    0.8250   -2.0880 hc        1 MOL     -0.017034
    173 H76         6.5430    0.4500   -1.6730 hc        1 MOL     -0.017034
    174 N15         6.2450    3.1810   -2.7240 n         1 MOL     -0.228871
    175 C58         6.5030    3.9960   -3.9800 c3        1 MOL     -0.219337
    176 H77         6.6900    5.0350   -3.7070 h1        1 MOL      0.106915
    177 H78         7.3720    3.5950   -4.5020 h1        1 MOL      0.106915
    178 H79         5.6310    3.9450   -4.6330 h1        1 MOL      0.106915
    179 H80         5.5870    2.4230   -2.8310 hn        1 MOL      0.264944
    180 Ca1         7.4140   -3.7990    1.5130 Ca        1 MOL      1.709353
    181 O27         5.9850   -4.5820    4.2730 oh        1 MOL     -0.832856
    182 H81         5.9770   -5.4010    4.7690 ho        1 MOL      0.394989
    183 H82         5.2660   -4.0710    4.6310 ho        1 MOL      0.394989
    184 O28         8.1200   -2.1180    3.3780 oh        1 MOL     -0.832856
    185 H83         7.9210   -2.1320    4.3070 ho        1 MOL      0.394989
    186 H84         8.8180   -1.4720    3.2760 ho        1 MOL      0.394989
    187 O29         9.4040   -4.6160    3.2050 oh        1 MOL     -0.832856
    188 H85         9.8630   -4.1020    3.8620 ho        1 MOL      0.394989
    189 H86         9.8050   -5.4830    3.2470 ho        1 MOL      0.394989
    190 O30         9.5530   -3.5970   -0.1370 oh        1 MOL     -0.832856
    191 H87         9.3260   -2.7360   -0.4860 ho        1 MOL      0.394989
    192 H88        10.4360   -3.4760    0.2300 ho        1 MOL      0.394989
    193 O31         8.0420   -6.2620    1.4580 oh        1 MOL     -0.832856
    194 H89         7.6500   -6.9940    1.9450 ho        1 MOL      0.394989
    195 H90         8.9270   -6.5620    1.2400 ho        1 MOL      0.394989
@<TRIPOS>BOND
     1    1    2 1   
     2    1    4 1   
     3    1    5 1   
     4    1    6 1   
     5    2    3 2   
     6    2    7 1   
     7    7    8 1   
     8    7   15 1   
     9    8    9 1   
    10    8   11 1   
    11    8   16 1   
    12    9   10 2   
    13    9   19 1   
    14   11   12 1   
    15   11   17 1   
    16   11   18 1   
    17   12   13 1   
    18   12   14 1   
    19   19   20 1   
    20   19   27 1   
    21   20   21 1   
    22   20   23 1   
    23   20   28 1   
    24   21   22 2   
    25   21   38 1   
    26   23   24 1   
    27   23   25 1   
    28   23   29 1   
    29   24   26 1   
    30   24   30 1   
    31   24   31 1   
    32   25   32 1   
    33   25   33 1   
    34   25   34 1   
    35   26   35 1   
    36   26   36 1   
    37   26   37 1   
    38   38   39 1   
    39   38   46 1   
    40   39   40 1   
    41   39   42 1   
    42   39   47 1   
    43   40   41 2   
    44   40   50 1   
    45   42   43 1   
    46   42   48 1   
    47   42   49 1   
    48   43   44 1   
    49   43   45 1   
    50   50   51 1   
    51   50   54 1   
    52   51   52 1   
    53   51   55 1   
    54   51   56 1   
    55   52   53 2   
    56   52   57 1   
    57   57   58 1   
    58   57   65 1   
    59   58   59 1   
    60   58   61 1   
    61   58   66 1   
    62   59   60 2   
    63   59   69 1   
    64   61   62 1   
    65   61   67 1   
    66   61   68 1   
    67   62   63 1   
    68   62   64 1   
    69   69   70 1   
    70   69   73 1   
    71   70   71 1   
    72   70   74 1   
    73   70   75 1   
    74   71   72 2   
    75   71   76 1   
    76   76   77 1   
    77   76   85 1   
    78   77   78 1   
    79   77   80 1   
    80   77   86 1   
    81   78   79 2   
    82   78   93 1   
    83   80   81 1   
    84   80   87 1   
    85   80   88 1   
    86   81   82 1   
    87   81   89 1   
    88   81   90 1   
    89   82   83 1   
    90   82   84 2   
    91   83   91 1   
    92   83   92 1   
    93   93   94 1   
    94   93  100 1   
    95   94   95 1   
    96   94   97 1   
    97   94  101 1   
    98   95   96 2   
    99   95  109 1   
   100   97   98 1   
   101   97   99 1   
   102   97  102 1   
   103   98  103 1   
   104   98  104 1   
   105   98  105 1   
   106   99  106 1   
   107   99  107 1   
   108   99  108 1   
   109  109  110 1   
   110  109  117 1   
   111  110  111 1   
   112  110  113 1   
   113  110  118 1   
   114  111  112 2   
   115  111  123 1   
   116  113  114 1   
   117  113  119 1   
   118  113  120 1   
   119  114  115 1   
   120  114  116 2   
   121  115  121 1   
   122  115  122 1   
   123  123  124 1   
   124  123  135 1   
   125  124  125 1   
   126  124  127 1   
   127  124  136 1   
   128  125  126 2   
   129  125  144 1   
   130  127  128 1   
   131  127  137 1   
   132  127  138 1   
   133  128  129 ar  
   134  128  130 ar  
   135  129  131 ar  
   136  129  139 1   
   137  130  132 ar  
   138  130  140 1   
   139  131  133 ar  
   140  131  141 1   
   141  132  133 ar  
   142  132  142 1   
   143  133  134 1   
   144  134  143 1   
   145  144  145 1   
   146  144  153 1   
   147  145  146 1   
   148  145  148 1   
   149  145  154 1   
   150  146  147 2   
   151  146  159 1   
   152  148  149 1   
   153  148  155 1   
   154  148  156 1   
   155  149  150 1   
   156  149  157 1   
   157  149  158 1   
   158  150  151 1   
   159  150  152 1   
   160  159  160 1   
   161  159  168 1   
   162  160  161 1   
   163  160  163 1   
   164  160  169 1   
   165  161  162 2   
   166  161  174 1   
   167  163  164 1   
   168  163  170 1   
   169  163  171 1   
   170  164  165 1   
   171  164  172 1   
   172  164  173 1   
   173  165  166 1   
   174  165  167 1   
   175  174  175 1   
   176  174  179 1   
   177  175  176 1   
   178  175  177 1   
   179  175  178 1   
   180  181  182 1   
   181  181  183 1   
   182  184  185 1   
   183  184  186 1   
   184  187  188 1   
   185  187  189 1   
   186  190  191 1   
   187  190  192 1   
   188  193  194 1   
   189  193  195 1   
@<TRIPOS>SUBSTRUCTURE
     1 MOL         1 TEMP              0 ****  ****    0 ROOT
