@<TRIPOS>MOLECULE
MOL
  189   185     1     0     0
SMALL
resp


@<TRIPOS>ATOM
      1 C1          4.0820    4.0860   -3.4840 c3        1 MOL     -0.305509
      2 C2          4.8070    3.1680   -2.4550 c         1 MOL      0.645809
      3 O1          4.3570    2.8600   -1.3160 o         1 MOL     -0.536818
      4 H1          3.0830    3.6950   -3.6770 hc        1 MOL      0.076626
      5 H2          4.0050    5.0960   -3.0800 hc        1 MOL      0.076626
      6 H3          4.6490    4.1080   -4.4140 hc        1 MOL      0.076626
      7 N1          5.9740    2.7060   -2.8980 n         1 MOL     -0.685332
      8 C3          6.7060    1.6670   -2.2730 c3        1 MOL      0.043655
      9 C4          5.9180    0.4560   -1.9010 c         1 MOL      0.391100
     10 O2          5.5820    0.3560   -0.7330 o         1 MOL     -0.207186
     11 C5          7.7310    2.1370   -1.2820 c3        1 MOL     -0.134378
     12 C6          7.1500    3.0350   -0.2090 c         1 MOL      0.770655
     13 O3          6.7130    2.4830    0.8140 o         1 MOL     -0.730928
     14 O4          7.4550    4.2320   -0.0730 o         1 MOL     -0.730928
     15 H4          6.3510    2.9710   -3.7910 hn        1 MOL      0.380294
     16 H5          7.2980    1.3710   -3.1390 h1        1 MOL      0.041335
     17 H6          8.6210    2.4280   -1.8330 hc        1 MOL      0.036725
     18 H7          8.1400    1.2690   -0.7730 hc        1 MOL      0.036725
     19 N2          5.5930   -0.3180   -2.8550 n         1 MOL     -0.473720
     20 C7          4.7890   -1.5840   -2.7450 c3        1 MOL      0.052609
     21 C8          5.2970   -2.8160   -2.0890 c         1 MOL      0.384117
     22 O5          4.9470   -3.9080   -2.4900 o         1 MOL     -0.515199
     23 C9          3.2260   -1.2690   -2.5730 c3        1 MOL      0.269039
     24 C10         2.2930   -2.3670   -3.1330 c3        1 MOL     -0.030332
     25 C11         2.7530    0.0920   -3.1530 c3        1 MOL     -0.254601
     26 C12         2.3400   -2.4960   -4.6150 c3        1 MOL     -0.195619
     27 H8          5.9800    0.0630   -3.7130 hn        1 MOL      0.271593
     28 H9          4.9490   -1.9530   -3.7600 h1        1 MOL      0.080360
     29 H10         2.9980   -1.2130   -1.5160 hc        1 MOL     -0.162981
     30 H11         1.2910   -2.1520   -2.7610 hc        1 MOL      0.058388
     31 H12         2.5750   -3.3560   -2.7930 hc        1 MOL      0.058388
     32 H13         1.6740    0.1100   -3.3200 hc        1 MOL      0.057879
     33 H14         2.9980    0.8690   -2.4330 hc        1 MOL      0.057879
     34 H15         3.2050    0.2710   -4.1380 hc        1 MOL      0.057879
     35 H16         3.3840   -2.5840   -4.9230 hc        1 MOL      0.023428
     36 H17         1.8990   -3.4400   -4.9460 hc        1 MOL      0.023428
     37 H18         1.8850   -1.6140   -5.0800 hc        1 MOL      0.023428
     38 N3          6.1070   -2.5920   -1.0440 n         1 MOL     -0.181826
     39 C13         6.8230   -3.6260   -0.3000 c3        1 MOL      0.139533
     40 C14         6.0070   -4.8870   -0.0490 c         1 MOL      0.554641
     41 O6          6.5820   -5.9760   -0.2910 o         1 MOL     -0.606718
     42 C15         7.4920   -2.9740    0.9750 c3        1 MOL     -0.178604
     43 C16         8.5170   -1.8670    0.6840 c         1 MOL      0.616684
     44 O7          9.1470   -2.0060   -0.3870 o         1 MOL     -0.674974
     45 O8          8.5060   -0.7960    1.3970 o         1 MOL     -0.674974
     46 H19         6.2360   -1.6460   -0.7120 hn        1 MOL      0.115188
     47 H20         7.5900   -4.0270   -0.9420 h1        1 MOL      0.021446
     48 H21         7.9150   -3.8430    1.4850 hc        1 MOL      0.046955
     49 H22         6.7270   -2.6110    1.6560 hc        1 MOL      0.046955
     50 N4          4.8170   -4.9470    0.5630 n         1 MOL     -0.593222
     51 C17         4.0420   -3.7650    1.0380 c3        1 MOL      0.101035
     52 C18         4.2210   -3.6290    2.5350 c         1 MOL      0.534110
     53 O9          5.1250   -4.1260    3.1860 o         1 MOL     -0.567724
     54 H23         4.4310   -5.8680    0.6900 hn        1 MOL      0.326918
     55 H24         2.9890   -3.9640    0.8630 h1        1 MOL      0.086058
     56 H25         4.3720   -2.8510    0.5460 h1        1 MOL      0.086058
     57 N5          3.4170   -2.9070    3.2890 n         1 MOL     -0.499305
     58 C19         2.2520   -2.0520    2.8930 c3        1 MOL      0.291373
     59 C20         2.2770   -1.2870    1.5560 c         1 MOL      0.026622
     60 O10         3.3390   -0.8680    1.0620 o         1 MOL     -0.571806
     61 C21         1.9190   -0.9910    3.9690 c3        1 MOL     -0.553260
     62 C22         2.9230    0.1890    3.8020 c         1 MOL      0.920872
     63 O11         2.5790    1.1300    3.0700 o         1 MOL     -0.697846
     64 O12         3.8850    0.3020    4.5060 o         1 MOL     -0.697846
     65 H26         3.4690   -3.0570    4.2820 hn        1 MOL      0.308733
     66 H27         1.3670   -2.6880    2.8550 h1        1 MOL     -0.001209
     67 H28         1.9590   -1.3520    4.9970 hc        1 MOL      0.134887
     68 H29         0.8750   -0.6960    3.8720 hc        1 MOL      0.134887
     69 N6          1.1980   -1.1230    0.7890 n         1 MOL     -0.202858
     70 C23        -0.2200   -1.4170    1.1130 c3        1 MOL     -0.064414
     71 C24        -0.7320   -2.7470    0.5680 c         1 MOL      0.593325
     72 O13         0.0230   -3.5780    0.0140 o         1 MOL     -0.549076
     73 H30         1.4800   -0.5010    0.0370 hn        1 MOL      0.354515
     74 H31        -0.8400   -0.6730    0.5980 h1        1 MOL      0.103957
     75 H32        -0.3610   -1.2780    2.1890 h1        1 MOL      0.103957
     76 N7         -2.0130   -2.9930    0.8060 n         1 MOL     -0.534044
     77 C25        -2.6520   -4.2260    0.2330 c3        1 MOL      0.044382
     78 C26        -3.4210   -3.9120   -1.1130 c         1 MOL      0.326344
     79 O14        -3.7840   -4.8930   -1.7960 o         1 MOL     -0.545324
     80 C27        -3.5720   -4.8830    1.2850 c3        1 MOL      0.006265
     81 C28        -4.5810   -4.0370    2.0030 c3        1 MOL     -0.335734
     82 C29        -5.7660   -3.7070    1.0520 c         1 MOL      0.503661
     83 N8         -6.6380   -4.6330    0.7070 n         1 MOL     -0.635064
     84 O15        -5.9180   -2.5420    0.6110 o         1 MOL     -0.556627
     85 H33        -2.5740   -2.2530    1.2030 hn        1 MOL      0.339389
     86 H34        -1.9060   -4.9820   -0.0110 h1        1 MOL      0.139316
     87 H35        -2.9660   -5.1050    2.1550 hc        1 MOL      0.032824
     88 H36        -3.9750   -5.8560    0.9900 hc        1 MOL      0.032824
     89 H37        -4.1850   -3.0890    2.3630 hc        1 MOL      0.132883
     90 H38        -5.1220   -4.6950    2.6820 hc        1 MOL      0.132883
     91 H39        -6.5160   -5.5780    1.0370 hn        1 MOL      0.332134
     92 H40        -7.5230   -4.3540    0.3170 hn        1 MOL      0.332134
     93 N9         -3.6370   -2.7020   -1.5320 n         1 MOL     -0.006386
     94 C30        -4.0380   -2.3840   -2.8620 c3        1 MOL     -0.213263
     95 C31        -5.3330   -1.6520   -3.0390 c         1 MOL      0.446860
     96 O16        -5.6160   -1.3730   -4.1770 o         1 MOL     -0.553693
     97 C32        -2.8010   -1.7120   -3.6160 c3        1 MOL      0.349722
     98 C33        -1.6520   -2.7610   -3.9030 c3        1 MOL     -0.260569
     99 C34        -2.2090   -0.5640   -2.7690 c3        1 MOL     -0.260569
    100 H41        -3.3840   -1.9410   -0.9260 hn        1 MOL      0.098503
    101 H42        -4.2900   -3.2950   -3.3980 h1        1 MOL      0.140269
    102 H43        -3.1140   -1.2720   -4.5650 hc        1 MOL     -0.036495
    103 H44        -1.5460   -3.4610   -3.0780 hc        1 MOL      0.053568
    104 H45        -2.1840   -3.3540   -4.6550 hc        1 MOL      0.053568
    105 H46        -0.7220   -2.3120   -4.2580 hc        1 MOL      0.053568
    106 H47        -2.9510    0.1680   -2.4250 hc        1 MOL      0.053568
    107 H48        -1.5750   -0.9910   -1.9980 hc        1 MOL      0.053568
    108 H49        -1.4890   -0.0100   -3.3630 hc        1 MOL      0.053568
    109 N10        -6.1520   -1.3150   -2.0600 n         1 MOL     -0.281890
    110 C35        -7.3970   -0.5360   -2.1270 c3        1 MOL     -0.045723
    111 C36        -7.2440    0.8690   -1.5890 c         1 MOL      0.631155
    112 O17        -8.0960    1.7410   -1.8060 o         1 MOL     -0.598941
    113 C37        -8.5670   -1.1990   -1.3190 c3        1 MOL     -0.220376
    114 C38        -8.8770   -2.6580   -1.5260 c         1 MOL      0.658412
    115 N11        -9.0300   -3.1310   -2.7650 n         1 MOL     -0.793583
    116 O18        -9.0670   -3.3710   -0.4880 o         1 MOL     -0.588221
    117 H50        -5.8810   -1.6550   -1.1520 hn        1 MOL      0.291610
    118 H51        -7.6960   -0.4300   -3.1730 h1        1 MOL      0.069351
    119 H52        -9.5350   -0.7460   -1.5510 hc        1 MOL      0.088661
    120 H53        -8.2940   -1.0880   -0.2650 hc        1 MOL      0.088661
    121 H54        -8.9520   -2.4580   -3.5070 hn        1 MOL      0.380400
    122 H55        -9.2500   -4.1000   -2.9430 hn        1 MOL      0.380400
    123 N12        -6.2140    1.1910   -0.8180 n         1 MOL     -0.416999
    124 C39        -6.0190    2.4170   -0.0230 c3        1 MOL      0.078599
    125 C40        -4.5540    2.8660    0.2800 c         1 MOL      0.492163
    126 O19        -3.6470    2.0720    0.2210 o         1 MOL     -0.409101
    127 C41        -6.7760    2.2640    1.3090 c3        1 MOL      0.100412
    128 C42        -6.5200    1.0390    2.1680 ca        1 MOL      0.213707
    129 C43        -7.5640    0.1560    2.4700 ca        1 MOL     -0.356769
    130 C44        -5.2880    0.9380    2.8470 ca        1 MOL     -0.356769
    131 C45        -7.2600   -0.8990    3.3590 ca        1 MOL     -0.050795
    132 C46        -4.9170   -0.2170    3.6600 ca        1 MOL     -0.050795
    133 C47        -5.9520   -1.0950    3.9320 ca        1 MOL      0.174526
    134 O20        -5.6830   -2.1320    4.7380 oh        1 MOL     -0.417334
    135 H56        -5.5240    0.4800   -0.6190 hn        1 MOL      0.201232
    136 H57        -6.4610    3.2390   -0.5860 h1        1 MOL      0.046326
    137 H58        -7.8480    2.1450    1.1430 hc        1 MOL     -0.025171
    138 H59        -6.6880    3.2400    1.8000 hc        1 MOL     -0.025171
    139 H60        -8.5670    0.4780    2.2260 ha        1 MOL      0.152180
    140 H61        -4.5150    1.6880    2.7560 ha        1 MOL      0.152180
    141 H62        -8.0570   -1.5210    3.7240 ha        1 MOL      0.098443
    142 H63        -3.8640   -0.3660    3.8910 ha        1 MOL      0.098443
    143 H64        -6.5140   -2.5790    4.9310 ho        1 MOL      0.304393
    144 N13        -4.3660    4.1090    0.6500 n         1 MOL     -0.611796
    145 C48        -3.1680    4.8020    1.1310 c3        1 MOL      0.112044
    146 C49        -2.0170    4.9670    0.0270 c         1 MOL      0.270168
    147 O21        -1.2240    5.9080    0.0460 o         1 MOL     -0.503531
    148 C50        -2.5230    4.1710    2.4370 c3        1 MOL     -0.091450
    149 C51        -3.4340    4.2610    3.6970 c3        1 MOL     -0.023381
    150 C52        -2.7220    3.7630    5.0310 c         1 MOL      0.566177
    151 O22        -2.3820    4.5900    5.9090 o         1 MOL     -0.670122
    152 O23        -2.5250    2.5350    5.1490 o         1 MOL     -0.670122
    153 H65        -5.2490    4.5790    0.7570 hn        1 MOL      0.327498
    154 H66        -3.4050    5.8370    1.3850 h1        1 MOL      0.069665
    155 H67        -1.5540    4.6590    2.5760 hc        1 MOL      0.096081
    156 H68        -2.2580    3.1250    2.2670 hc        1 MOL      0.096081
    157 H69        -4.3920    3.7280    3.6500 hc        1 MOL     -0.029867
    158 H70        -3.6990    5.3110    3.8580 hc        1 MOL     -0.029867
    159 N14        -1.9900    4.1470   -0.9960 n         1 MOL     -0.163829
    160 C53        -0.9010    4.1610   -1.9490 c3        1 MOL     -0.127766
    161 C54        -1.2600    4.9020   -3.2910 c         1 MOL      0.452237
    162 O24        -0.4360    5.1520   -4.1780 o         1 MOL     -0.543300
    163 C55        -0.4720    2.6540   -2.1120 c3        1 MOL      0.092462
    164 C56        -0.0810    1.8250   -0.8550 c3        1 MOL      0.480740
    165 C57         1.1290    2.3100   -0.1200 c         1 MOL      0.524344
    166 O25         1.0770    3.4530    0.3580 o         1 MOL     -0.631279
    167 O26         2.0870    1.5450   -0.0020 o         1 MOL     -0.631279
    168 H71        -2.5760    3.3320   -0.8800 hn        1 MOL      0.166749
    169 H72        -0.0190    4.6520   -1.5260 h1        1 MOL      0.178057
    170 H73         0.3460    2.6300   -2.8270 hc        1 MOL     -0.043284
    171 H74        -1.3470    2.2140   -2.5900 hc        1 MOL     -0.043284
    172 H75         0.0760    0.8540   -1.3090 hc        1 MOL     -0.206494
    173 H76        -0.9170    1.7630   -0.1540 hc        1 MOL     -0.206494
    174 N15        -2.5110    5.2370   -3.4470 n         1 MOL     -0.192644
    175 C58        -3.0190    6.0560   -4.5790 c3        1 MOL     -0.201184
    176 H77        -4.0220    5.7230   -4.8460 h1        1 MOL      0.084714
    177 H78        -3.0520    7.1050   -4.2840 h1        1 MOL      0.084714
    178 H79        -2.3580    5.9400   -5.4380 h1        1 MOL      0.084714
    179 H80        -3.2240    4.9650   -2.7950 hn        1 MOL      0.191893
    180 Ca1         4.3110    1.6490    1.2250 Ca        1 MOL      1.670017
    181 O27         3.3450    4.1020    1.6090 oh        1 MOL     -0.867423
    182 H81         2.5400    4.2310    1.1150 ho        1 MOL      0.412189
    183 H82         3.1210    4.3970    2.5020 ho        1 MOL      0.412189
    184 O28         5.3090    2.7890    3.5030 oh        1 MOL     -0.867423
    185 H83         6.2270    2.9320    3.3070 ho        1 MOL      0.412189
    186 H84         5.1930    3.1240    4.3900 ho        1 MOL      0.412189
    187 O29         6.1780    0.1340    2.4790 oh        1 MOL     -0.867423
    188 H85         6.9040   -0.1790    1.9430 ho        1 MOL      0.412189
    189 H86         6.0700   -0.5480    3.1490 ho        1 MOL      0.412189
@<TRIPOS>BOND
     1    1    2 1   
     2    1    4 1   
     3    1    5 1   
     4    1    6 1   
     5    2    3 2   
     6    2    7 1   
     7    7    8 1   
     8    7   15 1   
     9    8    9 1   
    10    8   11 1   
    11    8   16 1   
    12    9   10 2   
    13    9   19 1   
    14   11   12 1   
    15   11   17 1   
    16   11   18 1   
    17   12   13 1   
    18   12   14 1   
    19   19   20 1   
    20   19   27 1   
    21   20   21 1   
    22   20   23 1   
    23   20   28 1   
    24   21   22 2   
    25   21   38 1   
    26   23   24 1   
    27   23   25 1   
    28   23   29 1   
    29   24   26 1   
    30   24   30 1   
    31   24   31 1   
    32   25   32 1   
    33   25   33 1   
    34   25   34 1   
    35   26   35 1   
    36   26   36 1   
    37   26   37 1   
    38   38   39 1   
    39   38   46 1   
    40   39   40 1   
    41   39   42 1   
    42   39   47 1   
    43   40   41 2   
    44   40   50 1   
    45   42   43 1   
    46   42   48 1   
    47   42   49 1   
    48   43   44 1   
    49   43   45 1   
    50   50   51 1   
    51   50   54 1   
    52   51   52 1   
    53   51   55 1   
    54   51   56 1   
    55   52   53 2   
    56   52   57 1   
    57   57   58 1   
    58   57   65 1   
    59   58   59 1   
    60   58   61 1   
    61   58   66 1   
    62   59   60 2   
    63   59   69 1   
    64   61   62 1   
    65   61   67 1   
    66   61   68 1   
    67   62   63 1   
    68   62   64 1   
    69   69   70 1   
    70   69   73 1   
    71   70   71 1   
    72   70   74 1   
    73   70   75 1   
    74   71   72 2   
    75   71   76 1   
    76   76   77 1   
    77   76   85 1   
    78   77   78 1   
    79   77   80 1   
    80   77   86 1   
    81   78   79 2   
    82   78   93 1   
    83   80   81 1   
    84   80   87 1   
    85   80   88 1   
    86   81   82 1   
    87   81   89 1   
    88   81   90 1   
    89   82   83 1   
    90   82   84 2   
    91   83   91 1   
    92   83   92 1   
    93   93   94 1   
    94   93  100 1   
    95   94   95 1   
    96   94   97 1   
    97   94  101 1   
    98   95   96 2   
    99   95  109 1   
   100   97   98 1   
   101   97   99 1   
   102   97  102 1   
   103   98  103 1   
   104   98  104 1   
   105   98  105 1   
   106   99  106 1   
   107   99  107 1   
   108   99  108 1   
   109  109  110 1   
   110  109  117 1   
   111  110  111 1   
   112  110  113 1   
   113  110  118 1   
   114  111  112 2   
   115  111  123 1   
   116  113  114 1   
   117  113  119 1   
   118  113  120 1   
   119  114  115 1   
   120  114  116 2   
   121  115  121 1   
   122  115  122 1   
   123  123  124 1   
   124  123  135 1   
   125  124  125 1   
   126  124  127 1   
   127  124  136 1   
   128  125  126 2   
   129  125  144 1   
   130  127  128 1   
   131  127  137 1   
   132  127  138 1   
   133  128  129 ar  
   134  128  130 ar  
   135  129  131 ar  
   136  129  139 1   
   137  130  132 ar  
   138  130  140 1   
   139  131  133 ar  
   140  131  141 1   
   141  132  133 ar  
   142  132  142 1   
   143  133  134 1   
   144  134  143 1   
   145  144  145 1   
   146  144  153 1   
   147  145  146 1   
   148  145  148 1   
   149  145  154 1   
   150  146  147 2   
   151  146  159 1   
   152  148  149 1   
   153  148  155 1   
   154  148  156 1   
   155  149  150 1   
   156  149  157 1   
   157  149  158 1   
   158  150  151 1   
   159  150  152 1   
   160  159  160 1   
   161  159  168 1   
   162  160  161 1   
   163  160  163 1   
   164  160  169 1   
   165  161  162 2   
   166  161  174 1   
   167  163  164 1   
   168  163  170 1   
   169  163  171 1   
   170  164  165 1   
   171  164  172 1   
   172  164  173 1   
   173  165  166 1   
   174  165  167 1   
   175  174  175 1   
   176  174  179 1   
   177  175  176 1   
   178  175  177 1   
   179  175  178 1   
   180  181  182 1   
   181  181  183 1   
   182  184  185 1   
   183  184  186 1   
   184  187  188 1   
   185  187  189 1   
@<TRIPOS>SUBSTRUCTURE
     1 MOL         1 TEMP              0 ****  ****    0 ROOT
