@<TRIPOS>MOLECULE
MOL
  178   175     1     0     0
SMALL
resp


@<TRIPOS>ATOM
      1 C1         -1.2890   -6.0350   -3.2420 c3        1 MOL     -0.341722
      2 C2         -2.7150   -5.9730   -2.7880 c         1 MOL      0.656424
      3 O1         -3.2250   -7.0050   -2.2080 o         1 MOL     -0.608354
      4 H1         -0.8970   -7.0370   -3.0710 hc        1 MOL      0.085951
      5 H2         -1.2360   -5.8000   -4.3060 hc        1 MOL      0.085951
      6 H3         -0.6960   -5.3130   -2.6800 hc        1 MOL      0.085951
      7 N1         -3.4150   -4.9050   -3.0370 n         1 MOL     -0.495356
      8 C3         -4.7540   -4.7380   -2.5130 c3        1 MOL      0.033569
      9 C4         -4.7820   -3.8790   -1.2870 c         1 MOL      0.468528
     10 O2         -4.4300   -2.7040   -1.3040 o         1 MOL     -0.513856
     11 C5         -5.6230   -4.0490   -3.5390 c3        1 MOL     -0.035733
     12 C6         -7.1780   -4.0930   -3.2110 c         1 MOL      0.627311
     13 O3         -7.5720   -4.3190   -1.9860 o         1 MOL     -0.701422
     14 O4         -7.9580   -3.8940   -4.1870 o         1 MOL     -0.701422
     15 H4         -3.0340   -4.1810   -3.6330 hn        1 MOL      0.294725
     16 H5         -5.2810   -5.6670   -2.2940 h1        1 MOL      0.093785
     17 H6         -5.6650   -4.5710   -4.4960 hc        1 MOL     -0.007763
     18 H7         -5.3170   -3.0380   -3.8270 hc        1 MOL     -0.007763
     19 N2         -5.2060   -4.4130   -0.1120 n         1 MOL     -0.429928
     20 C7         -5.0570   -3.7410    1.1680 c3        1 MOL      0.419361
     21 C8         -3.6240   -3.8050    1.8070 c         1 MOL      0.358266
     22 O5         -2.7820   -4.5100    1.2830 o         1 MOL     -0.532149
     23 C9         -6.1170   -4.3970    2.0790 c3        1 MOL     -0.487642
     24 H8         -5.3980   -5.4000   -0.0380 hn        1 MOL      0.270687
     25 H9         -5.2960   -2.6860    1.0700 h1        1 MOL      0.059096
     26 H10        -6.2000   -3.9820    3.0820 hc        1 MOL      0.118620
     27 H11        -7.0680   -4.2710    1.5620 hc        1 MOL      0.118620
     28 H12        -5.9430   -5.4720    2.0980 hc        1 MOL      0.118620
     29 N3         -3.2190   -3.1230    2.9080 n         1 MOL     -0.420475
     30 C10        -3.9970   -2.1270    3.7170 c3        1 MOL      0.169506
     31 C11        -4.1700   -0.7340    2.9970 c         1 MOL      0.481953
     32 O6         -3.2120   -0.2450    2.3390 o         1 MOL     -0.478205
     33 C12        -3.3500   -1.8440    5.0980 c3        1 MOL     -0.294560
     34 C13        -1.8240   -1.6170    5.0890 c         1 MOL      0.743887
     35 O7         -1.1730   -1.4180    6.1480 o         1 MOL     -0.701923
     36 O8         -1.2410   -1.6610    4.0430 o         1 MOL     -0.701923
     37 H13        -2.2710   -3.3840    3.1410 hn        1 MOL      0.321884
     38 H14        -5.0120   -2.5110    3.8640 h1        1 MOL     -0.008222
     39 H15        -3.4720   -2.7300    5.7050 hc        1 MOL      0.050754
     40 H16        -3.8320   -1.0480    5.6720 hc        1 MOL      0.050754
     41 N4         -5.2450   -0.0460    3.3280 n         1 MOL     -0.469522
     42 C14        -5.6170    1.1530    2.5300 c3        1 MOL     -0.041295
     43 C15        -6.3050    0.6510    1.2280 c         1 MOL      0.617984
     44 O9         -6.4510   -0.5380    1.0670 o         1 MOL     -0.527179
     45 H17        -5.8360   -0.2240    4.1260 hn        1 MOL      0.317677
     46 H18        -4.6920    1.6450    2.2320 h1        1 MOL      0.084978
     47 H19        -6.2770    1.9090    2.9620 h1        1 MOL      0.084978
     48 N5         -6.7040    1.4600    0.2160 n         1 MOL     -0.590012
     49 C16        -6.4940    2.9540    0.0680 c3        1 MOL      0.084602
     50 C17        -5.9110    3.3450   -1.2980 c         1 MOL      0.576001
     51 O10        -6.5350    3.1740   -2.3320 o         1 MOL     -0.493660
     52 C18        -7.8910    3.7050    0.3130 c3        1 MOL     -0.351396
     53 C19        -7.7670    5.1890    0.2150 c         1 MOL      0.742813
     54 N6         -8.7830    5.8940   -0.2330 n         1 MOL     -0.815910
     55 O11        -6.8200    5.8030    0.7170 o         1 MOL     -0.601635
     56 H20        -7.0310    0.9410   -0.5940 hn        1 MOL      0.373069
     57 H21        -5.8600    3.3120    0.8810 h1        1 MOL      0.056247
     58 H22        -8.2750    3.5380    1.3180 hc        1 MOL      0.111217
     59 H23        -8.5460    3.4290   -0.5110 hc        1 MOL      0.111217
     60 H24        -9.6200    5.4520   -0.5940 hn        1 MOL      0.371162
     61 H25        -8.6370    6.8930   -0.1220 hn        1 MOL      0.371162
     62 N7         -4.6860    3.9580   -1.2640 n         1 MOL     -0.369039
     63 C20        -3.9350    4.3180   -2.4790 c3        1 MOL     -0.203023
     64 C21        -2.6050    4.9890   -2.4770 c         1 MOL      0.637183
     65 O12        -2.3420    5.7430   -3.4310 o         1 MOL     -0.571632
     66 H26        -4.1840    3.9670   -0.3860 hn        1 MOL      0.230367
     67 H27        -4.5840    5.0010   -3.0150 h1        1 MOL      0.120868
     68 H28        -3.9040    3.4290   -3.1180 h1        1 MOL      0.120868
     69 N8         -1.6990    4.7790   -1.5250 n         1 MOL     -0.430296
     70 C22        -0.3630    5.3480   -1.4180 c3        1 MOL     -0.006787
     71 C23         0.5640    4.1680   -1.1140 c         1 MOL      0.455704
     72 O13         0.2370    3.1920   -0.4990 o         1 MOL     -0.459202
     73 C24        -0.3760    6.4930   -0.3960 c3        1 MOL      0.412101
     74 C25        -1.0690    7.7930   -0.9060 c3        1 MOL     -0.439224
     75 O14        -1.0590    6.2210    0.8030 oh        1 MOL     -0.569661
     76 H29        -2.0420    4.3300   -0.6800 hn        1 MOL      0.259284
     77 H30        -0.0870    5.7940   -2.3670 h1        1 MOL      0.102593
     78 H31         0.6650    6.7530   -0.1850 h1        1 MOL     -0.026442
     79 H32        -0.7530    5.3460    1.0590 ho        1 MOL      0.355475
     80 H33        -0.9160    8.5330   -0.1230 hc        1 MOL      0.120064
     81 H34        -0.4720    8.0870   -1.7750 hc        1 MOL      0.120064
     82 H35        -2.0870    7.5590   -1.2100 hc        1 MOL      0.120064
     83 N9          1.8890    4.3140   -1.5070 n         1 MOL     -0.445960
     84 C26         2.9190    3.4140   -1.2110 c3        1 MOL     -0.333643
     85 C27         3.3130    3.5190    0.3060 c         1 MOL      0.642224
     86 O15         4.2200    4.2770    0.7070 o         1 MOL     -0.616205
     87 C28         4.1560    3.6880   -2.0660 c3        1 MOL      0.410291
     88 C29         5.3320    2.6710   -1.8220 c3        1 MOL      0.041833
     89 C30         3.8490    3.6790   -3.5950 c3        1 MOL     -0.446131
     90 C31         6.5800    2.8470   -2.6980 c3        1 MOL     -0.273202
     91 H36         2.1300    5.1470   -2.0160 hn        1 MOL      0.268613
     92 H37         2.5240    2.4160   -1.3850 h1        1 MOL      0.340764
     93 H38         4.5820    4.6700   -1.8370 hc        1 MOL     -0.031516
     94 H39         4.9450    1.6700   -2.0470 hc        1 MOL     -0.043376
     95 H40         5.6410    2.6710   -0.7780 hc        1 MOL     -0.043376
     96 H41         3.6710    2.6440   -3.9200 hc        1 MOL      0.092542
     97 H42         2.9960    4.3170   -3.8550 hc        1 MOL      0.092542
     98 H43         4.7260    4.1310   -4.0480 hc        1 MOL      0.092542
     99 H44         6.3850    2.7560   -3.7670 hc        1 MOL      0.058482
    100 H45         6.9440    3.8770   -2.6130 hc        1 MOL      0.058482
    101 H46         7.4000    2.1740   -2.4630 hc        1 MOL      0.058482
    102 N10         2.7800    2.6540    1.1890 n         1 MOL     -0.460586
    103 C32         3.2420    2.4550    2.5670 c3        1 MOL      0.218162
    104 C33         4.3540    1.3980    2.6610 c         1 MOL      0.298504
    105 O16         5.0050    1.3370    3.7230 o         1 MOL     -0.518071
    106 C34         2.1090    2.2200    3.5090 c3        1 MOL     -0.396190
    107 C35         1.0680    1.2280    3.0250 c         1 MOL      0.961213
    108 O17        -0.1350    1.4530    2.7650 o         1 MOL     -0.815745
    109 O18         1.3370   -0.0270    3.0200 o         1 MOL     -0.815745
    110 H47         2.1630    1.9990    0.7390 hn        1 MOL      0.257069
    111 H48         3.7470    3.3210    2.9880 h1        1 MOL      0.096984
    112 H49         1.6590    3.1960    3.7010 hc        1 MOL      0.099080
    113 H50         2.5770    1.9290    4.4510 hc        1 MOL      0.099080
    114 N11         4.5620    0.6410    1.5660 n         1 MOL     -0.286704
    115 C36         5.7180   -0.2300    1.4180 c3        1 MOL      0.351900
    116 C37         5.5760   -1.4080    0.4620 c         1 MOL      0.153823
    117 O19         6.2440   -1.4540   -0.6220 o         1 MOL     -0.445585
    118 C38         6.8920    0.7230    1.2500 c3        1 MOL     -0.353404
    119 C39         8.3200    0.1030    1.3720 ca        1 MOL      0.112153
    120 C40         8.7670   -0.3960    2.5880 ca        1 MOL     -0.127860
    121 C41         9.2630    0.1890    0.3570 ca        1 MOL     -0.127860
    122 C42        10.0260   -0.9830    2.7490 ca        1 MOL     -0.140513
    123 C43        10.6000   -0.1670    0.5640 ca        1 MOL     -0.140513
    124 C44        11.0100   -0.8300    1.7660 ca        1 MOL     -0.132708
    125 H51         3.8830    0.6520    0.8120 hn        1 MOL      0.187870
    126 H52         5.8430   -0.6950    2.3940 h1        1 MOL     -0.015329
    127 H53         6.7830    1.6700    1.7710 hc        1 MOL      0.161354
    128 H54         6.8730    1.0670    0.2110 hc        1 MOL      0.161354
    129 H55         8.0590   -0.3620    3.3980 ha        1 MOL      0.111915
    130 H56         9.1250    0.6890   -0.5870 ha        1 MOL      0.111915
    131 H57        10.3130   -1.5360    3.6300 ha        1 MOL      0.101893
    132 H58        11.2210    0.0420   -0.3040 ha        1 MOL      0.101893
    133 H59        11.9920   -1.2770    1.8520 ha        1 MOL      0.106653
    134 N12         4.7010   -2.3880    0.8710 n         1 MOL     -0.021462
    135 C45         4.4610   -3.6130    0.0750 c3        1 MOL     -0.087656
    136 C46         4.1480   -3.4500   -1.4230 c         1 MOL      0.345678
    137 O20         4.4660   -4.4020   -2.1130 o         1 MOL     -0.472193
    138 C47         3.1390   -4.1890    0.6710 c3        1 MOL     -0.007492
    139 C48         3.3640   -3.8510    2.1390 c3        1 MOL     -0.222804
    140 C49         3.9880   -2.5000    2.1600 c3        1 MOL      0.073135
    141 H60         5.3440   -4.2090    0.3160 h1        1 MOL      0.098914
    142 H61         2.3000   -3.5600    0.3630 hc        1 MOL      0.051346
    143 H62         3.1380   -5.2420    0.3800 hc        1 MOL      0.051346
    144 H63         2.4770   -3.8140    2.7680 hc        1 MOL      0.066854
    145 H64         4.1670   -4.4930    2.5020 hc        1 MOL      0.066854
    146 H65         3.2220   -1.7220    2.2190 h1        1 MOL      0.076605
    147 H66         4.6710   -2.4690    3.0140 h1        1 MOL      0.076605
    148 N13         3.7190   -2.2160   -1.8740 n         1 MOL     -0.180284
    149 C50         3.5440   -1.8230   -3.2760 c3        1 MOL     -0.231945
    150 C51         4.8840   -1.7780   -4.0810 c         1 MOL      0.546435
    151 O21         4.8600   -2.3190   -5.1780 o         1 MOL     -0.550813
    152 C52         2.8010   -0.4550   -3.4210 c3        1 MOL     -0.127605
    153 C53         1.4730   -0.2220   -2.6720 c3        1 MOL     -0.119127
    154 C54         1.6050   -0.2770   -1.1520 c         1 MOL      0.598922
    155 O22         0.5830   -0.7250   -0.5210 o         1 MOL     -0.736252
    156 O23         2.5680    0.1920   -0.5890 o         1 MOL     -0.736252
    157 H67         3.7040   -1.4590   -1.2080 hn        1 MOL      0.359068
    158 H68         2.8820   -2.5870   -3.6770 h1        1 MOL      0.149228
    159 H69         2.5460   -0.1650   -4.4370 hc        1 MOL      0.055471
    160 H70         3.4850    0.3340   -3.0810 hc        1 MOL      0.055471
    161 H71         0.6840   -0.8710   -3.0360 hc        1 MOL      0.064810
    162 H72         1.0840    0.7520   -2.9920 hc        1 MOL      0.064810
    163 N14         6.0860   -1.4120   -3.5650 n         1 MOL     -0.229003
    164 C55         7.4010   -1.7540   -4.0870 c3        1 MOL     -0.227463
    165 H73         7.6730   -2.7560   -3.7560 h1        1 MOL      0.095656
    166 H74         7.3790   -1.7250   -5.1760 h1        1 MOL      0.095656
    167 H75         8.1350   -1.0380   -3.7190 h1        1 MOL      0.095656
    168 H76         6.1160   -1.0600   -2.6240 hn        1 MOL      0.212969
    169 Ca1        -0.7210   -0.7920    1.6170 Ca        1 MOL      1.768246
    170 O24        -1.9950   -1.8230   -0.4640 oh        1 MOL     -0.857700
    171 H77        -2.7570   -2.2600   -0.8570 ho        1 MOL      0.396119
    172 H78        -1.3030   -1.9190   -1.1080 ho        1 MOL      0.396119
    173 O25        -0.3510   -3.4490    1.7940 oh        1 MOL     -0.857700
    174 H79         0.2740   -4.0630    2.1730 ho        1 MOL      0.396119
    175 H80        -1.0380   -4.0130    1.4240 ho        1 MOL      0.396119
    176 O26        -1.7410    1.3970    0.3030 oh        1 MOL     -0.857700
    177 H81        -2.4520    1.9740    0.5720 ho        1 MOL      0.396119
    178 H82        -1.0900    1.9770   -0.0810 ho        1 MOL      0.396119
@<TRIPOS>BOND
     1    1    2 1   
     2    1    4 1   
     3    1    5 1   
     4    1    6 1   
     5    2    3 2   
     6    2    7 1   
     7    7    8 1   
     8    7   15 1   
     9    8    9 1   
    10    8   11 1   
    11    8   16 1   
    12    9   10 2   
    13    9   19 1   
    14   11   12 1   
    15   11   17 1   
    16   11   18 1   
    17   12   13 1   
    18   12   14 1   
    19   19   20 1   
    20   19   24 1   
    21   20   21 1   
    22   20   23 1   
    23   20   25 1   
    24   21   22 2   
    25   21   29 1   
    26   23   26 1   
    27   23   27 1   
    28   23   28 1   
    29   29   30 1   
    30   29   37 1   
    31   30   31 1   
    32   30   33 1   
    33   30   38 1   
    34   31   32 2   
    35   31   41 1   
    36   33   34 1   
    37   33   39 1   
    38   33   40 1   
    39   34   35 1   
    40   34   36 1   
    41   41   42 1   
    42   41   45 1   
    43   42   43 1   
    44   42   46 1   
    45   42   47 1   
    46   43   44 2   
    47   43   48 1   
    48   48   49 1   
    49   48   56 1   
    50   49   50 1   
    51   49   52 1   
    52   49   57 1   
    53   50   51 2   
    54   50   62 1   
    55   52   53 1   
    56   52   58 1   
    57   52   59 1   
    58   53   54 1   
    59   53   55 2   
    60   54   60 1   
    61   54   61 1   
    62   62   63 1   
    63   62   66 1   
    64   63   64 1   
    65   63   67 1   
    66   63   68 1   
    67   64   65 2   
    68   64   69 1   
    69   69   70 1   
    70   69   76 1   
    71   70   71 1   
    72   70   73 1   
    73   70   77 1   
    74   71   72 2   
    75   71   83 1   
    76   73   74 1   
    77   73   75 1   
    78   73   78 1   
    79   74   80 1   
    80   74   81 1   
    81   74   82 1   
    82   75   79 1   
    83   83   84 1   
    84   83   91 1   
    85   84   85 1   
    86   84   87 1   
    87   84   92 1   
    88   85   86 2   
    89   85  102 1   
    90   87   88 1   
    91   87   89 1   
    92   87   93 1   
    93   88   90 1   
    94   88   94 1   
    95   88   95 1   
    96   89   96 1   
    97   89   97 1   
    98   89   98 1   
    99   90   99 1   
   100   90  100 1   
   101   90  101 1   
   102  102  103 1   
   103  102  110 1   
   104  103  104 1   
   105  103  106 1   
   106  103  111 1   
   107  104  105 2   
   108  104  114 1   
   109  106  107 1   
   110  106  112 1   
   111  106  113 1   
   112  107  108 1   
   113  107  109 1   
   114  114  115 1   
   115  114  125 1   
   116  115  116 1   
   117  115  118 1   
   118  115  126 1   
   119  116  117 2   
   120  116  134 1   
   121  118  119 1   
   122  118  127 1   
   123  118  128 1   
   124  119  120 ar  
   125  119  121 ar  
   126  120  122 ar  
   127  120  129 1   
   128  121  123 ar  
   129  121  130 1   
   130  122  124 ar  
   131  122  131 1   
   132  123  124 ar  
   133  123  132 1   
   134  124  133 1   
   135  134  135 1   
   136  134  140 1   
   137  135  136 1   
   138  135  138 1   
   139  135  141 1   
   140  136  137 2   
   141  136  148 1   
   142  138  139 1   
   143  138  142 1   
   144  138  143 1   
   145  139  140 1   
   146  139  144 1   
   147  139  145 1   
   148  140  146 1   
   149  140  147 1   
   150  148  149 1   
   151  148  157 1   
   152  149  150 1   
   153  149  152 1   
   154  149  158 1   
   155  150  151 2   
   156  150  163 1   
   157  152  153 1   
   158  152  159 1   
   159  152  160 1   
   160  153  154 1   
   161  153  161 1   
   162  153  162 1   
   163  154  155 1   
   164  154  156 1   
   165  163  164 1   
   166  163  168 1   
   167  164  165 1   
   168  164  166 1   
   169  164  167 1   
   170  170  171 1   
   171  170  172 1   
   172  173  174 1   
   173  173  175 1   
   174  176  177 1   
   175  176  178 1   
@<TRIPOS>SUBSTRUCTURE
     1 MOL         1 TEMP              0 ****  ****    0 ROOT
