@<TRIPOS>MOLECULE
MOL
  181   177     1     0     0
SMALL
resp


@<TRIPOS>ATOM
      1 C1          7.1930   -5.7150    4.8310 c3        1 MOL     -0.248086
      2 C2          6.6950   -4.4620    4.1380 c         1 MOL      0.647201
      3 O1          5.6800   -3.8620    4.5690 o         1 MOL     -0.583424
      4 H1          7.3860   -5.4960    5.8810 hc        1 MOL      0.055792
      5 H2          6.4380   -6.4970    4.7560 hc        1 MOL      0.055792
      6 H3          8.1140   -6.0520    4.3570 hc        1 MOL      0.055792
      7 N1          7.2060   -4.0850    3.0010 n         1 MOL     -0.525810
      8 C3          8.3460   -4.6440    2.2270 c3        1 MOL      0.474547
      9 C4          7.9990   -4.8610    0.7010 c         1 MOL      0.119378
     10 O2          6.8940   -4.6290    0.2040 o         1 MOL     -0.356942
     11 C5          9.5020   -3.7230    2.2490 c3        1 MOL     -0.488439
     12 C6          9.2900   -2.3820    1.6250 c         1 MOL      0.879823
     13 O3          9.6890   -2.0990    0.4910 o         1 MOL     -0.769661
     14 O4          8.6080   -1.5820    2.2470 o         1 MOL     -0.769661
     15 H4          6.8710   -3.2190    2.6130 hn        1 MOL      0.333946
     16 H5          8.7140   -5.5790    2.6340 h1        1 MOL      0.007789
     17 H6         10.3400   -4.0760    1.6640 hc        1 MOL      0.078261
     18 H7          9.7460   -3.5490    3.2970 hc        1 MOL      0.078261
     19 N2          8.9470   -5.2860   -0.1700 n         1 MOL     -0.380145
     20 C7          8.8120   -5.6080   -1.6120 c3        1 MOL      0.312327
     21 C8          8.2230   -4.5240   -2.5770 c         1 MOL      0.401135
     22 O5          8.0300   -4.8570   -3.7500 o         1 MOL     -0.544467
     23 C9          8.0560   -6.9560   -1.7730 c3        1 MOL     -0.258363
     24 H8          9.8510   -5.4910    0.2180 hn        1 MOL      0.245210
     25 H9          9.8210   -5.7550   -1.9920 h1        1 MOL      0.006880
     26 H10         7.9100   -7.3180   -2.7920 hc        1 MOL      0.068587
     27 H11         8.7610   -7.6580   -1.3350 hc        1 MOL      0.068587
     28 H12         7.0740   -6.9980   -1.3000 hc        1 MOL      0.068587
     29 N3          8.0080   -3.2840   -2.1100 n         1 MOL     -0.380164
     30 C10         6.8910   -2.4800   -2.6900 c3        1 MOL      0.339956
     31 C11         7.3710   -1.0390   -2.7770 c         1 MOL      0.419724
     32 O6          8.3830   -0.6930   -2.2310 o         1 MOL     -0.602484
     33 C12         5.5760   -2.6280   -1.9610 c3        1 MOL     -0.289136
     34 C13         5.5400   -1.9940   -0.5870 c         1 MOL      0.555979
     35 O7          6.6060   -1.5980   -0.0670 o         1 MOL     -0.616930
     36 O8          4.4340   -1.8990    0.0130 o         1 MOL     -0.616930
     37 H13         8.2690   -3.0440   -1.1620 hn        1 MOL      0.188866
     38 H14         6.7130   -2.8170   -3.7130 h1        1 MOL     -0.021295
     39 H15         5.4460   -3.7120   -1.8390 hc        1 MOL      0.101581
     40 H16         4.7760   -2.1720   -2.5320 hc        1 MOL      0.101581
     41 N4          6.6030   -0.1500   -3.4310 n         1 MOL     -0.351269
     42 C14         6.7960    1.3090   -3.4870 c3        1 MOL     -0.072860
     43 C15         6.1600    1.9490   -2.3060 c         1 MOL      0.667160
     44 O9          6.0220    1.3060   -1.2660 o         1 MOL     -0.543188
     45 H17         5.8600   -0.4840   -4.0200 hn        1 MOL      0.267883
     46 H18         6.4120    1.7480   -4.4030 h1        1 MOL      0.067181
     47 H19         7.8640    1.5130   -3.5520 h1        1 MOL      0.067181
     48 N5          5.8790    3.2580   -2.4190 n         1 MOL     -0.726340
     49 C16         5.4210    4.1370   -1.3600 c3        1 MOL      0.119832
     50 C17         3.9250    4.0550   -1.1420 c         1 MOL      0.785084
     51 O10         3.1600    3.6860   -2.0200 o         1 MOL     -0.517083
     52 C18         5.9260    5.5080   -1.8590 c3        1 MOL     -0.679756
     53 C19         5.7150    6.6440   -0.9360 c         1 MOL      0.858807
     54 N6          5.3620    7.7890   -1.4560 n         1 MOL     -0.873890
     55 O11         5.7250    6.5420    0.2400 o         1 MOL     -0.595463
     56 H20         6.0100    3.6330   -3.3450 hn        1 MOL      0.373908
     57 H21         5.9530    3.8510   -0.4550 h1        1 MOL      0.035524
     58 H22         5.2970    5.6270   -2.7320 hc        1 MOL      0.184651
     59 H23         7.0110    5.4180   -1.9910 hc        1 MOL      0.184651
     60 H24         5.2240    7.6860   -2.4470 hn        1 MOL      0.402891
     61 H25         5.1600    8.6040   -0.8820 hn        1 MOL      0.402891
     62 N7          3.5310    4.4720    0.0490 n         1 MOL     -0.673906
     63 C20         2.1700    4.6950    0.5010 c3        1 MOL      0.125554
     64 C21         1.4210    5.9660   -0.0370 c         1 MOL      0.562807
     65 O12         1.9070    6.4740   -1.0420 o         1 MOL     -0.545827
     66 H26         4.2710    4.9590    0.5480 hn        1 MOL      0.348313
     67 H27         2.2760    4.7330    1.5880 h1        1 MOL      0.053276
     68 H28         1.5940    3.8380    0.1510 h1        1 MOL      0.053276
     69 N8          0.1790    6.2760    0.3600 n         1 MOL     -0.503587
     70 C22        -0.6000    5.3960    1.2530 c3        1 MOL      0.088274
     71 C23        -1.8550    4.7810    0.6150 c         1 MOL      0.469764
     72 O13        -2.4910    5.3710   -0.2630 o         1 MOL     -0.524978
     73 C24        -1.0200    6.1740    2.5550 c3        1 MOL      0.433348
     74 C25         0.0110    6.0900    3.7340 c3        1 MOL     -0.337085
     75 O14        -1.1680    7.5700    2.2410 oh        1 MOL     -0.629219
     76 H29        -0.3310    6.9740   -0.1560 hn        1 MOL      0.317420
     77 H30         0.0470    4.6150    1.6480 h1        1 MOL     -0.012575
     78 H31        -1.9880    5.7460    2.8170 h1        1 MOL     -0.021436
     79 H32        -2.1020    7.7690    2.3210 ho        1 MOL      0.384248
     80 H33        -0.1920    5.2410    4.3810 hc        1 MOL      0.078258
     81 H34         1.0010    5.9390    3.2980 hc        1 MOL      0.078258
     82 H35        -0.0220    7.0440    4.2610 hc        1 MOL      0.078258
     83 N9         -2.0780    3.5350    1.0290 n         1 MOL     -0.345655
     84 C26        -3.0540    2.4920    0.5870 c3        1 MOL     -0.038324
     85 C27        -3.7870    1.8220    1.7810 c         1 MOL      0.417589
     86 O15        -3.1960    1.4830    2.8040 o         1 MOL     -0.554608
     87 C28        -2.4500    1.3810   -0.3010 c3        1 MOL      0.063070
     88 C29        -1.1920    0.6480    0.2950 c3        1 MOL      0.112190
     89 C30        -2.1530    2.0400   -1.6810 c3        1 MOL     -0.335986
     90 C31        -0.7720   -0.5560   -0.5070 c3        1 MOL     -0.081381
     91 H36        -1.4670    3.2360    1.7730 hn        1 MOL      0.204831
     92 H37        -3.8260    2.9970    0.0080 h1        1 MOL      0.142626
     93 H38        -3.2400    0.6380   -0.3580 hc        1 MOL      0.039779
     94 H39        -1.5540    0.2240    1.2280 hc        1 MOL     -0.016541
     95 H40        -0.3340    1.2870    0.4780 hc        1 MOL     -0.016541
     96 H41        -3.0290    2.4290   -2.1920 hc        1 MOL      0.087745
     97 H42        -1.4200    2.8430   -1.5870 hc        1 MOL      0.087745
     98 H43        -1.6030    1.3380   -2.3150 hc        1 MOL      0.087745
     99 H44        -0.5570   -0.2870   -1.5530 hc        1 MOL      0.014533
    100 H45         0.1460   -0.9140   -0.0510 hc        1 MOL      0.014533
    101 H46        -1.5720   -1.3010   -0.5190 hc        1 MOL      0.014533
    102 N10        -5.1140    1.6610    1.7070 n         1 MOL     -0.245663
    103 C32        -6.0210    1.7950    0.4780 c3        1 MOL      0.113935
    104 C33        -7.1820    0.7630    0.6160 c         1 MOL      0.582988
    105 O16        -7.4750    0.2340    1.6980 o         1 MOL     -0.484493
    106 C34        -6.6100    3.1560    0.3760 c3        1 MOL     -0.260082
    107 C35        -7.3640    3.7160    1.6410 c         1 MOL      0.729941
    108 O17        -6.7530    4.2350    2.5800 o         1 MOL     -0.692917
    109 O18        -8.5780    3.4890    1.6650 o         1 MOL     -0.692917
    110 H47        -5.5610    1.1700    2.4750 hn        1 MOL      0.243043
    111 H48        -5.5840    1.5130   -0.4800 h1        1 MOL      0.034530
    112 H49        -7.3010    3.1630   -0.4580 hc        1 MOL      0.023727
    113 H50        -5.8630    3.9070    0.1300 hc        1 MOL      0.023727
    114 N11        -7.9020    0.5550   -0.5340 n         1 MOL     -0.672541
    115 C36        -9.1010   -0.2110   -0.5470 c3        1 MOL      0.355952
    116 C37        -9.2530   -1.1650   -1.7550 c         1 MOL      0.182798
    117 O19        -9.2460   -0.7140   -2.9010 o         1 MOL     -0.483064
    118 C38       -10.2260    0.8600   -0.5770 c3        1 MOL     -0.187080
    119 C39       -11.6670    0.3530   -0.6220 ca        1 MOL      0.068627
    120 C40       -12.4300    0.5640   -1.8060 ca        1 MOL     -0.128868
    121 C41       -12.3190   -0.2710    0.5100 ca        1 MOL     -0.128868
    122 C42       -13.7350    0.2120   -1.9060 ca        1 MOL     -0.116852
    123 C43       -13.6220   -0.6690    0.3690 ca        1 MOL     -0.116852
    124 C44       -14.3950   -0.3530   -0.7770 ca        1 MOL     -0.165061
    125 H51        -7.5140    0.7050   -1.4470 hn        1 MOL      0.395845
    126 H52        -9.2240   -0.7600    0.3840 h1        1 MOL      0.011693
    127 H53       -10.1090    1.5880   -1.3770 hc        1 MOL      0.090659
    128 H54       -10.0340    1.4160    0.3390 hc        1 MOL      0.090659
    129 H55       -12.0040    0.8970   -2.7410 ha        1 MOL      0.124160
    130 H56       -11.7520   -0.4500    1.4080 ha        1 MOL      0.124160
    131 H57       -14.2770    0.3900   -2.8240 ha        1 MOL      0.089810
    132 H58       -14.1850   -1.0840    1.1830 ha        1 MOL      0.089810
    133 H59       -15.4560   -0.5260   -0.7680 ha        1 MOL      0.097432
    134 N12        -9.4440   -2.4940   -1.5610 n         1 MOL      0.026593
    135 C45        -9.6620   -3.1760   -0.3060 c3        1 MOL      0.073297
    136 C46        -8.4750   -3.3750    0.6670 c         1 MOL      0.406996
    137 O20        -8.5180   -3.3950    1.9010 o         1 MOL     -0.586944
    138 C47       -10.2000   -4.6230   -0.7240 c3        1 MOL     -0.083342
    139 C48        -9.4300   -4.7540   -2.0630 c3        1 MOL     -0.029070
    140 C49        -9.4820   -3.3830   -2.6810 c3        1 MOL     -0.136741
    141 H60       -10.5210   -2.7720    0.2280 h1        1 MOL     -0.003630
    142 H61        -9.9480   -5.3690    0.0240 hc        1 MOL      0.031639
    143 H62       -11.2770   -4.6770   -0.9100 hc        1 MOL      0.031639
    144 H63        -8.4150   -5.0680   -1.8310 hc        1 MOL      0.016036
    145 H64        -9.9170   -5.3930   -2.8060 hc        1 MOL      0.016036
    146 H65        -8.5430   -3.2390   -3.2150 h1        1 MOL      0.080324
    147 H66       -10.3930   -3.2500   -3.2680 h1        1 MOL      0.080324
    148 N13        -7.3410   -3.4550    0.0400 n         1 MOL     -0.084053
    149 C50        -6.1060   -3.8110    0.7810 c3        1 MOL      0.035772
    150 C51        -5.9830   -5.3380    1.0410 c         1 MOL      0.471499
    151 O21        -5.8810   -6.1470    0.1480 o         1 MOL     -0.572740
    152 C52        -4.8930   -3.4110   -0.0740 c3        1 MOL     -0.176801
    153 C53        -4.7680   -1.9080   -0.3950 c3        1 MOL      0.120010
    154 C54        -5.2640   -1.6030   -1.8750 c         1 MOL      0.600243
    155 O22        -4.7370   -0.6780   -2.4750 o         1 MOL     -0.646636
    156 O23        -6.2710   -2.2090   -2.3640 o         1 MOL     -0.646636
    157 H67        -7.2600   -3.2630   -0.9490 hn        1 MOL      0.180445
    158 H68        -6.1090   -3.3400    1.7670 h1        1 MOL      0.078499
    159 H69        -4.9680   -3.9480   -1.0240 hc        1 MOL      0.048455
    160 H70        -4.0580   -3.7860    0.5170 hc        1 MOL      0.048455
    161 H71        -3.7280   -1.6320   -0.4670 hc        1 MOL     -0.072101
    162 H72        -5.2830   -1.2670    0.3290 hc        1 MOL     -0.072101
    163 N14        -6.0830   -5.8520    2.2610 n         1 MOL     -0.365931
    164 C55        -6.6440   -5.1890    3.4820 c3        1 MOL     -0.109246
    165 H73        -5.9120   -5.2340    4.2880 h1        1 MOL      0.068221
    166 H74        -6.8730   -4.1470    3.2570 h1        1 MOL      0.068221
    167 H75        -7.5540   -5.7030    3.7890 h1        1 MOL      0.068221
    168 H76        -5.7120   -6.7700    2.4310 hn        1 MOL      0.264208
    169 Ca1         8.2650    0.2410    0.3790 Ca        1 MOL      1.684851
    170 O24         8.3060    2.8190   -0.0880 oh        1 MOL     -0.789404
    171 H77         8.7720    3.3570   -0.7340 ho        1 MOL      0.394200
    172 H78         7.8210    3.4560    0.4350 ho        1 MOL      0.394200
    173 O25        10.9530    1.1220   -0.2800 oh        1 MOL     -0.789404
    174 H79        11.4860    0.3330   -0.3630 ho        1 MOL      0.394200
    175 H80        10.8260    1.4330   -1.1710 ho        1 MOL      0.394200
    176 O26         9.5720    1.6740    2.1820 oh        1 MOL     -0.789404
    177 H81         9.1590    2.3630    2.6940 ho        1 MOL      0.394200
    178 H82        10.5020    1.8820    2.1940 ho        1 MOL      0.394200
    179 O27         6.1970    0.8310    1.9260 oh        1 MOL     -0.789404
    180 H83         5.3880    1.2740    1.6680 ho        1 MOL      0.394200
    181 H84         5.9060   -0.0110    2.2740 ho        1 MOL      0.394200
@<TRIPOS>BOND
     1    1    2 1   
     2    1    4 1   
     3    1    5 1   
     4    1    6 1   
     5    2    3 2   
     6    2    7 1   
     7    7    8 1   
     8    7   15 1   
     9    8    9 1   
    10    8   11 1   
    11    8   16 1   
    12    9   10 2   
    13    9   19 1   
    14   11   12 1   
    15   11   17 1   
    16   11   18 1   
    17   12   13 1   
    18   12   14 1   
    19   19   20 1   
    20   19   24 1   
    21   20   21 1   
    22   20   23 1   
    23   20   25 1   
    24   21   22 2   
    25   21   29 1   
    26   23   26 1   
    27   23   27 1   
    28   23   28 1   
    29   29   30 1   
    30   29   37 1   
    31   30   31 1   
    32   30   33 1   
    33   30   38 1   
    34   31   32 2   
    35   31   41 1   
    36   33   34 1   
    37   33   39 1   
    38   33   40 1   
    39   34   35 1   
    40   34   36 1   
    41   41   42 1   
    42   41   45 1   
    43   42   43 1   
    44   42   46 1   
    45   42   47 1   
    46   43   44 2   
    47   43   48 1   
    48   48   49 1   
    49   48   56 1   
    50   49   50 1   
    51   49   52 1   
    52   49   57 1   
    53   50   51 2   
    54   50   62 1   
    55   52   53 1   
    56   52   58 1   
    57   52   59 1   
    58   53   54 1   
    59   53   55 2   
    60   54   60 1   
    61   54   61 1   
    62   62   63 1   
    63   62   66 1   
    64   63   64 1   
    65   63   67 1   
    66   63   68 1   
    67   64   65 2   
    68   64   69 1   
    69   69   70 1   
    70   69   76 1   
    71   70   71 1   
    72   70   73 1   
    73   70   77 1   
    74   71   72 2   
    75   71   83 1   
    76   73   74 1   
    77   73   75 1   
    78   73   78 1   
    79   74   80 1   
    80   74   81 1   
    81   74   82 1   
    82   75   79 1   
    83   83   84 1   
    84   83   91 1   
    85   84   85 1   
    86   84   87 1   
    87   84   92 1   
    88   85   86 2   
    89   85  102 1   
    90   87   88 1   
    91   87   89 1   
    92   87   93 1   
    93   88   90 1   
    94   88   94 1   
    95   88   95 1   
    96   89   96 1   
    97   89   97 1   
    98   89   98 1   
    99   90   99 1   
   100   90  100 1   
   101   90  101 1   
   102  102  103 1   
   103  102  110 1   
   104  103  104 1   
   105  103  106 1   
   106  103  111 1   
   107  104  105 2   
   108  104  114 1   
   109  106  107 1   
   110  106  112 1   
   111  106  113 1   
   112  107  108 1   
   113  107  109 1   
   114  114  115 1   
   115  114  125 1   
   116  115  116 1   
   117  115  118 1   
   118  115  126 1   
   119  116  117 2   
   120  116  134 1   
   121  118  119 1   
   122  118  127 1   
   123  118  128 1   
   124  119  120 ar  
   125  119  121 ar  
   126  120  122 ar  
   127  120  129 1   
   128  121  123 ar  
   129  121  130 1   
   130  122  124 ar  
   131  122  131 1   
   132  123  124 ar  
   133  123  132 1   
   134  124  133 1   
   135  134  135 1   
   136  134  140 1   
   137  135  136 1   
   138  135  138 1   
   139  135  141 1   
   140  136  137 2   
   141  136  148 1   
   142  138  139 1   
   143  138  142 1   
   144  138  143 1   
   145  139  140 1   
   146  139  144 1   
   147  139  145 1   
   148  140  146 1   
   149  140  147 1   
   150  148  149 1   
   151  148  157 1   
   152  149  150 1   
   153  149  152 1   
   154  149  158 1   
   155  150  151 2   
   156  150  163 1   
   157  152  153 1   
   158  152  159 1   
   159  152  160 1   
   160  153  154 1   
   161  153  161 1   
   162  153  162 1   
   163  154  155 1   
   164  154  156 1   
   165  163  164 1   
   166  163  168 1   
   167  164  165 1   
   168  164  166 1   
   169  164  167 1   
   170  170  171 1   
   171  170  172 1   
   172  173  174 1   
   173  173  175 1   
   174  176  177 1   
   175  176  178 1   
   176  179  180 1   
   177  179  181 1   
@<TRIPOS>SUBSTRUCTURE
     1 MOL         1 TEMP              0 ****  ****    0 ROOT
