@<TRIPOS>MOLECULE
MOL
  178   175     1     0     0
SMALL
resp


@<TRIPOS>ATOM
      1 C1          1.7820    7.2030   -2.1800 c3        1 MOL     -0.340379
      2 C2          2.9990    6.4940   -1.6320 c         1 MOL      0.696968
      3 O1          3.5580    6.9920   -0.6600 o         1 MOL     -0.597236
      4 H1          2.0310    8.2430   -2.3890 hc        1 MOL      0.083454
      5 H2          1.4600    6.7150   -3.1000 hc        1 MOL      0.083454
      6 H3          0.9760    7.1640   -1.4470 hc        1 MOL      0.083454
      7 N1          3.5330    5.4620   -2.2700 n         1 MOL     -0.548282
      8 C3          4.8240    4.8610   -1.9120 c3        1 MOL      0.237158
      9 C4          4.7680    4.0670   -0.5680 c         1 MOL      0.516476
     10 O2          4.4370    2.9140   -0.5770 o         1 MOL     -0.446136
     11 C5          5.1170    3.8550   -3.0710 c3        1 MOL     -0.496433
     12 C6          6.4490    3.0160   -2.9580 c         1 MOL      0.797370
     13 O3          7.3940    3.4470   -2.2600 o         1 MOL     -0.738347
     14 O4          6.6300    1.9940   -3.6520 o         1 MOL     -0.738347
     15 H4          3.0300    5.1280   -3.0690 hn        1 MOL      0.306270
     16 H5          5.6120    5.6120   -1.9140 h1        1 MOL      0.034413
     17 H6          5.1800    4.5310   -3.9300 hc        1 MOL      0.083782
     18 H7          4.2670    3.1690   -3.1090 hc        1 MOL      0.083782
     19 N2          4.9470    4.7800    0.5130 n         1 MOL     -0.671047
     20 C7          4.7500    4.2400    1.8770 c3        1 MOL      0.704066
     21 C8          3.2230    3.7780    1.9350 c         1 MOL      0.228883
     22 O5          2.3520    4.4770    1.4100 o         1 MOL     -0.534941
     23 C9          5.0530    5.3260    2.8470 c3        1 MOL     -0.356084
     24 H8          5.0240    5.7800    0.3760 hn        1 MOL      0.313304
     25 H9          5.4600    3.4120    1.9350 h1        1 MOL     -0.071705
     26 H10         4.3330    6.1380    2.8990 hc        1 MOL      0.072061
     27 H11         5.1830    4.9010    3.8510 hc        1 MOL      0.072061
     28 H12         6.0260    5.7320    2.5750 hc        1 MOL      0.072061
     29 N3          2.8560    2.7220    2.6280 n         1 MOL     -0.237529
     30 C10         3.7010    1.7520    3.3270 c3        1 MOL      0.062050
     31 C11         4.3140    0.7690    2.3610 c         1 MOL      0.460825
     32 O6          3.7330    0.6550    1.3040 o         1 MOL     -0.480280
     33 C12         3.0250    1.0910    4.5080 c3        1 MOL     -0.396471
     34 C13         1.6370    0.4950    4.2500 c         1 MOL      0.690237
     35 O7          0.9100    0.1600    5.2330 o         1 MOL     -0.660520
     36 O8          1.2400    0.4790    3.0840 o         1 MOL     -0.660520
     37 H13         1.8610    2.5480    2.6350 hn        1 MOL      0.250819
     38 H14         4.4480    2.3400    3.8550 h1        1 MOL      0.001705
     39 H15         2.8630    1.8740    5.2570 hc        1 MOL      0.100927
     40 H16         3.6040    0.3070    4.9770 hc        1 MOL      0.100927
     41 N4          5.3880    0.0790    2.7810 n         1 MOL     -0.479302
     42 C14         5.9610   -1.0420    2.0900 c3        1 MOL      0.110101
     43 C15         6.5750   -0.7680    0.7060 c         1 MOL      0.384972
     44 O9          6.9770    0.3260    0.4860 o         1 MOL     -0.416707
     45 H17         5.5530    0.2300    3.7650 hn        1 MOL      0.293762
     46 H18         5.1530   -1.7560    1.9290 h1        1 MOL      0.052465
     47 H19         6.7520   -1.5250    2.6570 h1        1 MOL      0.052465
     48 N5          6.8130   -1.7520   -0.1770 n         1 MOL     -0.407112
     49 C16         6.3530   -3.1710   -0.1570 c3        1 MOL      0.017820
     50 C17         5.3960   -3.4610   -1.2640 c         1 MOL      0.671008
     51 O10         5.0670   -4.5740   -1.5870 o         1 MOL     -0.593564
     52 C18         7.5720   -4.1310   -0.1020 c3        1 MOL     -0.178449
     53 C19         8.4480   -3.9120    1.0980 c         1 MOL      0.705707
     54 N6          9.7220   -3.7090    0.9330 n         1 MOL     -0.809886
     55 O11         7.9750   -3.8580    2.2490 o         1 MOL     -0.601325
     56 H20         7.2810   -1.5640   -1.0450 hn        1 MOL      0.286119
     57 H21         5.7310   -3.4010    0.7030 h1        1 MOL      0.077665
     58 H22         8.1450   -4.0560   -1.0170 hc        1 MOL      0.059379
     59 H23         7.2740   -5.1780   -0.0190 hc        1 MOL      0.059379
     60 H24        10.2030   -3.6560    0.0470 hn        1 MOL      0.375585
     61 H25        10.2130   -3.5960    1.8160 hn        1 MOL      0.375585
     62 N7          4.8370   -2.4350   -1.9880 n         1 MOL     -0.451929
     63 C20         4.0210   -2.5600   -3.2290 c3        1 MOL     -0.225083
     64 C21         2.6550   -3.1570   -3.1380 c         1 MOL      0.564377
     65 O12         1.8570   -2.9740   -4.0770 o         1 MOL     -0.562251
     66 H26         5.0110   -1.4670   -1.7580 hn        1 MOL      0.295671
     67 H27         4.5510   -3.1420   -3.9750 h1        1 MOL      0.140177
     68 H28         3.9220   -1.5640   -3.6620 h1        1 MOL      0.140177
     69 N8          2.3830   -3.8660   -2.0360 n         1 MOL     -0.261481
     70 C22         1.0340   -4.5120   -1.8490 c3        1 MOL     -0.223842
     71 C23        -0.0740   -3.5300   -1.5530 c         1 MOL      0.602918
     72 O13         0.1390   -2.4280   -1.0980 o         1 MOL     -0.496704
     73 C24         1.0870   -5.7040   -0.8330 c3        1 MOL      0.456460
     74 C25         2.1600   -6.6530   -1.1900 c3        1 MOL     -0.475387
     75 O14         1.4000   -5.1840    0.4400 oh        1 MOL     -0.707999
     76 H29         3.0990   -4.0120   -1.3340 hn        1 MOL      0.271063
     77 H30         0.8020   -5.0100   -2.7880 h1        1 MOL      0.088103
     78 H31         0.1090   -6.1530   -0.6750 h1        1 MOL      0.008403
     79 H32         0.8170   -5.6050    1.0770 ho        1 MOL      0.463217
     80 H33         3.1360   -6.1840   -1.3020 hc        1 MOL      0.121839
     81 H34         2.1930   -7.3880   -0.3780 hc        1 MOL      0.121839
     82 H35         1.9650   -7.1690   -2.1260 hc        1 MOL      0.121839
     83 N9         -1.2500   -4.0050   -1.8680 n         1 MOL     -0.489623
     84 C26        -2.4510   -3.2360   -1.4920 c3        1 MOL     -0.027423
     85 C27        -2.6130   -3.3660    0.0120 c         1 MOL      0.451353
     86 O15        -2.7850   -4.5060    0.4330 o         1 MOL     -0.600007
     87 C28        -3.7020   -3.6700   -2.2300 c3        1 MOL      0.412863
     88 C29        -4.9050   -2.6920   -2.0060 c3        1 MOL     -0.082727
     89 C30        -3.3500   -3.7300   -3.7080 c3        1 MOL     -0.214515
     90 C31        -6.1730   -3.0190   -2.8160 c3        1 MOL     -0.299004
     91 H36        -1.3760   -4.9510   -2.1770 hn        1 MOL      0.289962
     92 H37        -2.2710   -2.1970   -1.7770 h1        1 MOL      0.080665
     93 H38        -3.9330   -4.6920   -1.9300 hc        1 MOL     -0.065180
     94 H39        -4.6150   -1.6880   -2.3190 hc        1 MOL      0.018800
     95 H40        -5.1150   -2.5830   -0.9370 hc        1 MOL      0.018800
     96 H41        -4.2540   -4.0580   -4.2290 hc        1 MOL      0.027955
     97 H42        -3.0980   -2.7320   -4.0510 hc        1 MOL      0.027955
     98 H43        -2.5950   -4.4870   -3.9180 hc        1 MOL      0.027955
     99 H44        -6.3290   -4.0980   -2.8380 hc        1 MOL      0.070940
    100 H45        -7.0210   -2.5370   -2.3320 hc        1 MOL      0.070940
    101 H46        -6.1860   -2.5120   -3.7800 hc        1 MOL      0.070940
    102 N10        -2.6350   -2.3020    0.7460 n         1 MOL     -0.012947
    103 C32        -3.2610   -2.1990    2.1070 c3        1 MOL     -0.071161
    104 C33        -4.6930   -1.6020    2.1490 c         1 MOL      0.386168
    105 O16        -5.4470   -1.9580    3.0700 o         1 MOL     -0.549533
    106 C34        -2.1990   -1.5760    3.0280 c3        1 MOL     -0.133514
    107 C35        -0.8780   -2.4180    2.9200 c         1 MOL      0.613532
    108 O17        -0.7330   -3.3270    3.8300 o         1 MOL     -0.685637
    109 O18         0.0420   -2.0670    2.1350 o         1 MOL     -0.685637
    110 H47        -2.4660   -1.4010    0.3130 hn        1 MOL     -0.140944
    111 H48        -3.3950   -3.2150    2.4700 h1        1 MOL      0.107770
    112 H49        -2.5730   -1.5290    4.0500 hc        1 MOL      0.090048
    113 H50        -2.0790   -0.5480    2.7080 hc        1 MOL      0.090048
    114 N11        -5.1150   -0.7600    1.1810 n         1 MOL     -0.304250
    115 C36        -6.3960    0.0250    1.2740 c3        1 MOL      0.493850
    116 C37        -6.1280    1.4120    0.8020 c         1 MOL      0.134556
    117 O19        -6.7010    1.7860   -0.2380 o         1 MOL     -0.472295
    118 C38        -7.4500   -0.8350    0.4900 c3        1 MOL     -0.641038
    119 C39        -8.9810   -0.7260    0.8620 ca        1 MOL      0.217890
    120 C40        -9.4620   -0.0200    1.9800 ca        1 MOL     -0.158903
    121 C41        -9.8590   -1.4760    0.0440 ca        1 MOL     -0.158903
    122 C42       -10.8120   -0.0280    2.3410 ca        1 MOL     -0.134837
    123 C43       -11.2360   -1.4620    0.3420 ca        1 MOL     -0.134837
    124 C44       -11.7160   -0.7960    1.5340 ca        1 MOL     -0.147175
    125 H51        -4.4310   -0.4580    0.5170 hn        1 MOL      0.236702
    126 H52        -6.7210    0.1110    2.3150 h1        1 MOL      0.011125
    127 H53        -7.1780   -1.8550    0.7630 hc        1 MOL      0.210949
    128 H54        -7.2630   -0.5880   -0.5550 hc        1 MOL      0.210949
    129 H55        -8.8210    0.6030    2.5780 ha        1 MOL      0.118787
    130 H56        -9.5300   -2.1380   -0.7290 ha        1 MOL      0.118787
    131 H57       -11.1500    0.4190    3.2620 ha        1 MOL      0.114341
    132 H58       -11.9120   -2.0000   -0.3070 ha        1 MOL      0.114341
    133 H59       -12.7920   -0.7880    1.6700 ha        1 MOL      0.097901
    134 N12        -5.2320    2.2300    1.4620 n         1 MOL      0.003771
    135 C45        -4.8200    3.5700    1.0600 c3        1 MOL     -0.000945
    136 C46        -4.3560    3.8050   -0.4240 c         1 MOL      0.164839
    137 O20        -4.4430    4.9590   -0.8290 o         1 MOL     -0.516383
    138 C47        -3.6410    3.9320    1.9660 c3        1 MOL      0.003187
    139 C48        -3.8180    3.1070    3.2380 c3        1 MOL     -0.179338
    140 C49        -4.5510    1.8880    2.7390 c3        1 MOL     -0.044949
    141 H60        -5.7010    4.1840    1.2660 h1        1 MOL      0.066396
    142 H61        -2.6550    3.7010    1.5850 hc        1 MOL      0.056393
    143 H62        -3.6180    4.9920    2.2390 hc        1 MOL      0.056393
    144 H63        -2.8290    2.8160    3.6060 hc        1 MOL      0.067836
    145 H64        -4.4130    3.7500    3.8820 hc        1 MOL      0.067836
    146 H65        -3.8110    1.1070    2.5940 h1        1 MOL      0.048927
    147 H66        -5.3000    1.4410    3.4000 h1        1 MOL      0.048927
    148 N13        -4.0480    2.7760   -1.1470 n         1 MOL      0.178844
    149 C50        -3.7210    2.8920   -2.5180 c3        1 MOL     -0.309775
    150 C51        -5.0050    2.8580   -3.3910 c         1 MOL      0.671680
    151 O21        -5.0100    3.6120   -4.2980 o         1 MOL     -0.573662
    152 C52        -2.7910    1.7430   -2.9270 c3        1 MOL      0.118930
    153 C53        -1.6520    1.4220   -1.9950 c3        1 MOL     -0.081023
    154 C54        -1.9600    0.5540   -0.8200 c         1 MOL      0.779889
    155 O22        -1.0020    0.2040   -0.0440 o         1 MOL     -0.671483
    156 O23        -3.1340    0.4590   -0.3810 o         1 MOL     -0.671483
    157 H67        -3.8840    1.8670   -0.7340 hn        1 MOL      0.113355
    158 H68        -3.1550    3.7840   -2.7710 h1        1 MOL      0.125770
    159 H69        -2.3330    1.9590   -3.8950 hc        1 MOL     -0.044834
    160 H70        -3.4020    0.8480   -3.0280 hc        1 MOL     -0.044834
    161 H71        -1.2240    2.3730   -1.6880 hc        1 MOL      0.026741
    162 H72        -0.8690    0.8660   -2.5090 hc        1 MOL      0.026741
    163 N14        -6.0200    1.9940   -3.1460 n         1 MOL     -0.326028
    164 C55        -7.3320    2.0860   -3.7570 c3        1 MOL     -0.210987
    165 H73        -7.8960    1.1780   -3.5410 h1        1 MOL      0.090410
    166 H74        -7.8610    2.9480   -3.3520 h1        1 MOL      0.090410
    167 H75        -7.2240    2.1980   -4.8350 h1        1 MOL      0.090410
    168 H76        -5.9020    1.3910   -2.3400 hn        1 MOL      0.245290
    169 Ca1         1.2870   -0.6710    0.5720 Ca        1 MOL      1.724750
    170 O24         1.3800    2.2160    0.0060 oh        1 MOL     -0.926140
    171 H77         2.2840    2.5020   -0.1190 ho        1 MOL      0.445052
    172 H78         0.9930    2.8660    0.5870 ho        1 MOL      0.445052
    173 O25         2.6850   -2.7840    1.0400 oh        1 MOL     -0.926140
    174 H79         2.3830   -3.6710    0.8350 ho        1 MOL      0.445052
    175 H80         3.0530   -2.8460    1.9220 ho        1 MOL      0.445052
    176 O26         2.2120   -0.0370   -1.8180 oh        1 MOL     -0.926140
    177 H81         1.6860    0.4170   -2.4760 ho        1 MOL      0.445052
    178 H82         3.1160    0.1970   -2.0270 ho        1 MOL      0.445052
@<TRIPOS>BOND
     1    1    2 1   
     2    1    4 1   
     3    1    5 1   
     4    1    6 1   
     5    2    3 2   
     6    2    7 1   
     7    7    8 1   
     8    7   15 1   
     9    8    9 1   
    10    8   11 1   
    11    8   16 1   
    12    9   10 2   
    13    9   19 1   
    14   11   12 1   
    15   11   17 1   
    16   11   18 1   
    17   12   13 1   
    18   12   14 1   
    19   19   20 1   
    20   19   24 1   
    21   20   21 1   
    22   20   23 1   
    23   20   25 1   
    24   21   22 2   
    25   21   29 1   
    26   23   26 1   
    27   23   27 1   
    28   23   28 1   
    29   29   30 1   
    30   29   37 1   
    31   30   31 1   
    32   30   33 1   
    33   30   38 1   
    34   31   32 2   
    35   31   41 1   
    36   33   34 1   
    37   33   39 1   
    38   33   40 1   
    39   34   35 1   
    40   34   36 1   
    41   41   42 1   
    42   41   45 1   
    43   42   43 1   
    44   42   46 1   
    45   42   47 1   
    46   43   44 2   
    47   43   48 1   
    48   48   49 1   
    49   48   56 1   
    50   49   50 1   
    51   49   52 1   
    52   49   57 1   
    53   50   51 2   
    54   50   62 1   
    55   52   53 1   
    56   52   58 1   
    57   52   59 1   
    58   53   54 1   
    59   53   55 2   
    60   54   60 1   
    61   54   61 1   
    62   62   63 1   
    63   62   66 1   
    64   63   64 1   
    65   63   67 1   
    66   63   68 1   
    67   64   65 2   
    68   64   69 1   
    69   69   70 1   
    70   69   76 1   
    71   70   71 1   
    72   70   73 1   
    73   70   77 1   
    74   71   72 2   
    75   71   83 1   
    76   73   74 1   
    77   73   75 1   
    78   73   78 1   
    79   74   80 1   
    80   74   81 1   
    81   74   82 1   
    82   75   79 1   
    83   83   84 1   
    84   83   91 1   
    85   84   85 1   
    86   84   87 1   
    87   84   92 1   
    88   85   86 2   
    89   85  102 1   
    90   87   88 1   
    91   87   89 1   
    92   87   93 1   
    93   88   90 1   
    94   88   94 1   
    95   88   95 1   
    96   89   96 1   
    97   89   97 1   
    98   89   98 1   
    99   90   99 1   
   100   90  100 1   
   101   90  101 1   
   102  102  103 1   
   103  102  110 1   
   104  103  104 1   
   105  103  106 1   
   106  103  111 1   
   107  104  105 2   
   108  104  114 1   
   109  106  107 1   
   110  106  112 1   
   111  106  113 1   
   112  107  108 1   
   113  107  109 1   
   114  114  115 1   
   115  114  125 1   
   116  115  116 1   
   117  115  118 1   
   118  115  126 1   
   119  116  117 2   
   120  116  134 1   
   121  118  119 1   
   122  118  127 1   
   123  118  128 1   
   124  119  120 ar  
   125  119  121 ar  
   126  120  122 ar  
   127  120  129 1   
   128  121  123 ar  
   129  121  130 1   
   130  122  124 ar  
   131  122  131 1   
   132  123  124 ar  
   133  123  132 1   
   134  124  133 1   
   135  134  135 1   
   136  134  140 1   
   137  135  136 1   
   138  135  138 1   
   139  135  141 1   
   140  136  137 2   
   141  136  148 1   
   142  138  139 1   
   143  138  142 1   
   144  138  143 1   
   145  139  140 1   
   146  139  144 1   
   147  139  145 1   
   148  140  146 1   
   149  140  147 1   
   150  148  149 1   
   151  148  157 1   
   152  149  150 1   
   153  149  152 1   
   154  149  158 1   
   155  150  151 2   
   156  150  163 1   
   157  152  153 1   
   158  152  159 1   
   159  152  160 1   
   160  153  154 1   
   161  153  161 1   
   162  153  162 1   
   163  154  155 1   
   164  154  156 1   
   165  163  164 1   
   166  163  168 1   
   167  164  165 1   
   168  164  166 1   
   169  164  167 1   
   170  170  171 1   
   171  170  172 1   
   172  173  174 1   
   173  173  175 1   
   174  176  177 1   
   175  176  178 1   
@<TRIPOS>SUBSTRUCTURE
     1 MOL         1 TEMP              0 ****  ****    0 ROOT
