@<TRIPOS>MOLECULE
MOL
  195   189     1     0     0
SMALL
resp


@<TRIPOS>ATOM
      1 C1          3.5820    5.8430   -2.3210 c3        1 MOL     -0.386260
      2 C2          5.0900    5.5910   -2.1870 c         1 MOL      0.783368
      3 O1          5.6760    6.2260   -1.3790 o         1 MOL     -0.587978
      4 H1          3.3520    6.8520   -1.9810 hc        1 MOL      0.092236
      5 H2          3.2870    5.7360   -3.3640 hc        1 MOL      0.092236
      6 H3          3.0370    5.1220   -1.7110 hc        1 MOL      0.092236
      7 N1          5.7450    4.7140   -2.9950 n         1 MOL     -0.733066
      8 C3          7.1660    4.2920   -2.6500 c3        1 MOL      0.569147
      9 C4          7.2200    3.8210   -1.1710 c         1 MOL      0.127152
     10 O2          6.1850    3.5860   -0.4860 o         1 MOL     -0.492042
     11 C5          8.1740    5.4460   -3.1020 c3        1 MOL     -0.424608
     12 C6          9.6250    5.0100   -3.4580 c         1 MOL      0.728426
     13 O3         10.3430    5.6970   -4.2220 o         1 MOL     -0.676423
     14 O4         10.0530    3.9780   -2.9720 o         1 MOL     -0.676423
     15 H4          5.2160    4.1230   -3.6250 hn        1 MOL      0.323611
     16 H5          7.4820    3.4390   -3.2540 h1        1 MOL     -0.011262
     17 H6          8.1430    6.1720   -2.2830 hc        1 MOL      0.091770
     18 H7          7.7050    5.9450   -3.9550 hc        1 MOL      0.091770
     19 N2          8.4400    3.6820   -0.6150 n         1 MOL     -0.197939
     20 C7          8.7650    3.3920    0.7840 c3        1 MOL      0.034880
     21 C8          8.0750    2.1370    1.3580 c         1 MOL      0.519401
     22 O5          7.9280    2.0650    2.5730 o         1 MOL     -0.564858
     23 C9          8.6830    4.7110    1.5770 c3        1 MOL     -0.252088
     24 C10         7.3460    5.2150    1.9850 c3        1 MOL      0.154649
     25 C11         7.2770    6.1960    3.1610 c3        1 MOL     -0.230691
     26 C12         5.9270    6.9410    3.1090 c3        1 MOL      0.062365
     27 N3          5.6170    7.7810    4.2880 n4        1 MOL     -0.292922
     28 H8          9.2690    3.7350   -1.1850 hn        1 MOL      0.200768
     29 H9          9.8050    3.1140    0.6320 h1        1 MOL      0.099161
     30 H10         9.2560    5.4430    1.0020 hc        1 MOL      0.082374
     31 H11         9.0900    4.5290    2.5690 hc        1 MOL      0.082374
     32 H12         6.6780    4.3820    2.2050 hc        1 MOL      0.044551
     33 H13         6.8420    5.6030    1.0990 hc        1 MOL      0.044551
     34 H14         8.1470    6.8630    3.1770 hc        1 MOL      0.066815
     35 H15         7.3830    5.7500    4.1540 hc        1 MOL      0.066815
     36 H16         5.1750    6.1640    2.9660 hx        1 MOL      0.087523
     37 H17         5.8230    7.4730    2.1640 hx        1 MOL      0.087523
     38 H18         6.3150    8.4710    4.5420 hn        1 MOL      0.307850
     39 H19         4.6830    8.1650    4.2300 hn        1 MOL      0.307850
     40 H20         5.5620    7.2350    5.1320 hn        1 MOL      0.307850
     41 N4          7.5770    1.3040    0.5010 n         1 MOL     -0.618459
     42 C13         6.6770    0.2110    0.8160 c3        1 MOL      0.671950
     43 C14         6.8920   -0.9410   -0.1540 c         1 MOL      0.197226
     44 O6          6.5630   -0.7670   -1.3600 o         1 MOL     -0.526439
     45 C15         5.2190    0.7030    0.8340 c3        1 MOL     -0.317852
     46 C16         4.1490   -0.3930    1.1420 c         1 MOL      0.681542
     47 O7          2.8970   -0.1200    1.2950 o         1 MOL     -0.762197
     48 O8          4.3960   -1.6230    1.1710 o         1 MOL     -0.762197
     49 H21         7.5370    1.6470   -0.4530 hn        1 MOL      0.291867
     50 H22         6.8820   -0.1560    1.8240 h1        1 MOL     -0.065186
     51 H23         4.9730    1.3290   -0.0250 hc        1 MOL      0.101142
     52 H24         5.1220    1.3500    1.7060 hc        1 MOL      0.101142
     53 N5          7.4090   -2.1200    0.2040 n         1 MOL     -0.204036
     54 C17         7.8580   -2.7330    1.5280 c3        1 MOL     -0.211367
     55 C18         7.1460   -4.0180    1.8800 c         1 MOL      0.708764
     56 O9          7.7980   -4.9410    2.2730 o         1 MOL     -0.563693
     57 H25         7.5060   -2.7410   -0.5870 hn        1 MOL      0.244565
     58 H26         7.5450   -2.0920    2.3510 h1        1 MOL      0.105912
     59 H27         8.9380   -2.6730    1.5880 h1        1 MOL      0.105912
     60 N6          5.8560   -4.1360    1.4910 n         1 MOL     -0.431259
     61 C19         5.1600   -5.4420    1.2610 c3        1 MOL     -0.095477
     62 C20         3.8490   -5.3840    0.4750 c         1 MOL      0.510080
     63 O10         3.0080   -4.4880    0.6150 o         1 MOL     -0.577103
     64 C21         4.8500   -6.1120    2.6030 c3        1 MOL     -0.190494
     65 C22         4.3070   -5.1460    3.7020 c         1 MOL      0.680151
     66 O11         3.8550   -4.0090    3.4630 o         1 MOL     -0.682950
     67 O12         4.2570   -5.5630    4.8940 o         1 MOL     -0.682950
     68 H28         5.2940   -3.3310    1.2680 hn        1 MOL      0.238488
     69 H29         5.8160   -6.1420    0.7480 h1        1 MOL      0.082521
     70 H30         5.7060   -6.6350    3.0290 hc        1 MOL      0.064484
     71 H31         4.1920   -6.9540    2.4350 hc        1 MOL      0.064484
     72 N7          3.6710   -6.3260   -0.4340 n         1 MOL     -0.284815
     73 C23         2.3520   -6.7140   -1.1260 c3        1 MOL     -0.180975
     74 C24         1.6840   -5.4810   -1.7260 c         1 MOL      0.623722
     75 O13         0.5170   -5.4960   -1.8210 o         1 MOL     -0.568290
     76 H32         4.3950   -7.0240   -0.5290 hn        1 MOL      0.248642
     77 H33         1.6990   -7.0880   -0.3440 h1        1 MOL      0.110867
     78 H34         2.6570   -7.3310   -1.9680 h1        1 MOL      0.110867
     79 N8          2.4560   -4.4980   -2.2160 n         1 MOL     -0.305504
     80 C25         1.8870   -3.3090   -2.7950 c3        1 MOL     -0.110919
     81 C26         1.2650   -2.3270   -1.7830 c         1 MOL      0.358893
     82 O14         1.5220   -2.3760   -0.5700 o         1 MOL     -0.389539
     83 C27         2.9890   -2.5200   -3.5610 c3        1 MOL      0.306903
     84 C28         4.0310   -1.8340   -2.6160 c3        1 MOL     -0.447201
     85 O15         3.7530   -3.4040   -4.3480 oh        1 MOL     -0.550249
     86 H35         3.4560   -4.5770   -2.3770 hn        1 MOL      0.196315
     87 H36         1.0830   -3.5410   -3.5010 h1        1 MOL      0.083189
     88 H37         2.4120   -1.7940   -4.1330 h1        1 MOL     -0.014443
     89 H38         3.1630   -3.8100   -4.9920 ho        1 MOL      0.366521
     90 H39         3.5600   -1.1700   -1.8970 hc        1 MOL      0.171105
     91 H40         4.4150   -2.6730   -2.0310 hc        1 MOL      0.171105
     92 H41         4.8530   -1.2890   -3.0740 hc        1 MOL      0.171105
     93 N9          0.3750   -1.4390   -2.2820 n         1 MOL     -0.162585
     94 C29        -0.1070   -0.2900   -1.5110 c3        1 MOL     -0.269741
     95 C30        -1.4770   -0.5290   -0.8050 c         1 MOL      0.402083
     96 O16        -1.8600    0.3170    0.0770 o         1 MOL     -0.548185
     97 C31        -0.1650    0.9630   -2.4550 c3        1 MOL      0.331924
     98 C32        -1.3360    0.7400   -3.6030 c3        1 MOL      0.104949
     99 C33         1.2300    1.3380   -3.0480 c3        1 MOL     -0.170963
    100 C34        -1.7990    2.1630   -4.0810 c3        1 MOL     -0.309369
    101 H42        -0.0080   -1.5640   -3.2090 hn        1 MOL      0.179802
    102 H43         0.6380   -0.0970   -0.7310 h1        1 MOL      0.177086
    103 H44        -0.4550    1.8060   -1.8270 hc        1 MOL     -0.013830
    104 H45        -2.2150    0.2690   -3.1710 hc        1 MOL     -0.004574
    105 H46        -0.9500    0.1530   -4.4450 hc        1 MOL     -0.004574
    106 H47         1.5350    0.7290   -3.8960 hc        1 MOL      0.026780
    107 H48         1.0990    2.3560   -3.4190 hc        1 MOL      0.026780
    108 H49         2.0080    1.3490   -2.2850 hc        1 MOL      0.026780
    109 H50        -0.8930    2.7400   -4.2590 hc        1 MOL      0.074480
    110 H51        -2.3100    2.0530   -5.0370 hc        1 MOL      0.074480
    111 H52        -2.5120    2.5340   -3.3440 hc        1 MOL      0.074480
    112 N10        -2.1550   -1.6050   -1.1120 n         1 MOL     -0.377627
    113 C35        -3.4950   -1.9240   -0.5550 c3        1 MOL      0.285993
    114 C36        -4.5380   -2.0680   -1.6840 c         1 MOL      0.382017
    115 O17        -4.2990   -2.6850   -2.7140 o         1 MOL     -0.528121
    116 C37        -3.5450   -3.1070    0.3680 c3        1 MOL      0.418522
    117 C38        -3.0270   -4.3920   -0.2130 c3        1 MOL     -0.593162
    118 O18        -2.7300   -2.7440    1.5240 oh        1 MOL     -0.668908
    119 H53        -1.8360   -2.2510   -1.8270 hn        1 MOL      0.211838
    120 H54        -3.7380   -1.0460    0.0260 h1        1 MOL      0.056385
    121 H55        -4.5940   -3.0760    0.6760 h1        1 MOL     -0.023300
    122 H56        -2.1070   -3.4750    1.5060 ho        1 MOL      0.393908
    123 H57        -2.9770   -5.1170    0.6080 hc        1 MOL      0.153838
    124 H58        -3.6680   -4.7450   -1.0080 hc        1 MOL      0.153838
    125 H59        -2.0440   -4.2020   -0.6520 hc        1 MOL      0.153838
    126 N11        -5.7490   -1.4880   -1.4730 n         1 MOL     -0.356806
    127 C39        -6.7720   -1.3100   -2.5450 c3        1 MOL     -0.073880
    128 C40        -7.7000   -0.1980   -2.1380 c         1 MOL      0.479011
    129 O19        -7.8810    0.7550   -2.9760 o         1 MOL     -0.536750
    130 C41        -7.6120   -2.6120   -2.8360 c3        1 MOL      0.263801
    131 C42        -8.6330   -2.4900   -3.9150 c3        1 MOL     -0.317292
    132 O20        -8.3740   -2.9270   -1.6810 oh        1 MOL     -0.680635
    133 H60        -5.8610   -1.0740   -0.5600 hn        1 MOL      0.207094
    134 H61        -6.2040   -0.8970   -3.3690 h1        1 MOL      0.149574
    135 H62        -6.9410   -3.4150   -3.1380 h1        1 MOL      0.087883
    136 H63        -9.1340   -3.4480   -1.9360 ho        1 MOL      0.423791
    137 H64        -8.9440   -3.4990   -4.1740 hc        1 MOL      0.084826
    138 H65        -9.4930   -1.9370   -3.5330 hc        1 MOL      0.084826
    139 H66        -8.1790   -1.9180   -4.7270 hc        1 MOL      0.084826
    140 N12        -8.1430   -0.1740   -0.8990 n         1 MOL     -0.301134
    141 C43        -9.1470    0.6700   -0.3550 c3        1 MOL      0.143431
    142 C44        -8.8010    1.2540    1.0620 c         1 MOL      0.185449
    143 O21        -8.2720    0.5360    1.8520 o         1 MOL     -0.513630
    144 C45       -10.4360   -0.2190   -0.3160 c3        1 MOL     -0.236793
    145 C46       -11.6580    0.4870    0.2040 c3        1 MOL      0.289001
    146 C47       -12.9830   -0.3700    0.2010 c3        1 MOL     -0.134139
    147 C48       -14.1290    0.5560    0.2760 c3        1 MOL      0.160560
    148 N13       -15.3780   -0.1890    0.3100 n4        1 MOL     -0.367618
    149 H67        -8.0120   -0.9840   -0.3070 hn        1 MOL      0.301797
    150 H68        -9.3570    1.5450   -0.9700 h1        1 MOL      0.059662
    151 H69       -10.2380   -1.0880    0.3060 hc        1 MOL      0.056897
    152 H70       -10.7090   -0.6040   -1.3040 hc        1 MOL      0.056897
    153 H71       -11.8270    1.4120   -0.3410 hc        1 MOL     -0.032170
    154 H72       -11.5460    0.7170    1.2680 hc        1 MOL     -0.032170
    155 H73       -12.9330   -1.0810    1.0240 hc        1 MOL      0.019648
    156 H74       -13.0090   -0.9270   -0.7340 hc        1 MOL      0.019648
    157 H75       -14.0180    1.2710   -0.5400 hx        1 MOL      0.060195
    158 H76       -14.0420    1.1210    1.2130 hx        1 MOL      0.060195
    159 H77       -15.6870   -0.7500   -0.4670 hn        1 MOL      0.309319
    160 H78       -15.3160   -0.8750    1.0380 hn        1 MOL      0.309319
    161 H79       -16.0960    0.5120    0.4420 hn        1 MOL      0.309319
    162 N14        -9.0390    2.5770    1.2680 n         1 MOL      0.173386
    163 C49        -8.9160    3.1490    2.6270 c3        1 MOL      0.218526
    164 C50        -7.5020    3.7330    2.9600 c         1 MOL      0.206637
    165 O22        -7.1130    3.8740    4.1550 o         1 MOL     -0.540400
    166 C51       -10.0600    4.1490    2.9130 c3        1 MOL     -0.241614
    167 C52       -11.5150    3.9160    2.3240 c3        1 MOL      0.001875
    168 C53       -11.6640    4.6000    0.9460 c         1 MOL      0.614456
    169 O23       -11.1010    4.0400   -0.0220 o         1 MOL     -0.660921
    170 O24       -12.5020    5.4720    0.8240 o         1 MOL     -0.660921
    171 H80        -9.4600    3.1150    0.5200 hn        1 MOL      0.018674
    172 H81        -9.1750    2.3720    3.3440 h1        1 MOL      0.022786
    173 H82        -9.7520    5.1110    2.5050 hc        1 MOL      0.084911
    174 H83       -10.1300    4.1370    4.0010 hc        1 MOL      0.084911
    175 H84       -12.2160    4.4720    2.9560 hc        1 MOL     -0.036292
    176 H85       -11.6900    2.8440    2.2610 hc        1 MOL     -0.036292
    177 N15        -6.6340    4.1460    2.0740 n         1 MOL     -0.181379
    178 C54        -6.6780    4.2290    0.6210 c3        1 MOL     -0.192663
    179 H86        -6.9280    3.2500    0.2090 h1        1 MOL      0.084745
    180 H87        -7.4360    4.9530    0.3200 h1        1 MOL      0.084745
    181 H88        -5.7050    4.5430    0.2440 h1        1 MOL      0.084745
    182 H89        -5.8460    4.6100    2.5060 hn        1 MOL      0.260048
    183 Ca1         2.0400   -2.5660    2.0300 Ca        1 MOL      1.783014
    184 O25         0.5600   -4.0450    3.8900 oh        1 MOL     -0.877736
    185 H90        -0.3970   -4.1160    3.8800 ho        1 MOL      0.428824
    186 H91         0.7940   -4.1370    4.8130 ho        1 MOL      0.428824
    187 O26         0.0360   -4.3840    1.1290 oh        1 MOL     -0.877736
    188 H92        -0.0830   -5.1470    1.7010 ho        1 MOL      0.428824
    189 H93         0.0830   -4.7600    0.2410 ho        1 MOL      0.428824
    190 O27         2.6560   -1.2940    4.2860 oh        1 MOL     -0.877736
    191 H94         2.9210   -1.7670    5.0660 ho        1 MOL      0.428824
    192 H95         2.8140   -0.3750    4.4920 ho        1 MOL      0.428824
    193 O28        -0.0470   -0.7140    2.1070 oh        1 MOL     -0.877736
    194 H96        -0.4810   -0.6000    2.9560 ho        1 MOL      0.428824
    195 H97        -0.5680   -0.1970    1.5010 ho        1 MOL      0.428824
@<TRIPOS>BOND
     1    1    2 1   
     2    1    4 1   
     3    1    5 1   
     4    1    6 1   
     5    2    3 2   
     6    2    7 1   
     7    7    8 1   
     8    7   15 1   
     9    8    9 1   
    10    8   11 1   
    11    8   16 1   
    12    9   10 2   
    13    9   19 1   
    14   11   12 1   
    15   11   17 1   
    16   11   18 1   
    17   12   13 1   
    18   12   14 1   
    19   19   20 1   
    20   19   28 1   
    21   20   21 1   
    22   20   23 1   
    23   20   29 1   
    24   21   22 2   
    25   21   41 1   
    26   23   24 1   
    27   23   30 1   
    28   23   31 1   
    29   24   25 1   
    30   24   32 1   
    31   24   33 1   
    32   25   26 1   
    33   25   34 1   
    34   25   35 1   
    35   26   27 1   
    36   26   36 1   
    37   26   37 1   
    38   27   38 1   
    39   27   39 1   
    40   27   40 1   
    41   41   42 1   
    42   41   49 1   
    43   42   43 1   
    44   42   45 1   
    45   42   50 1   
    46   43   44 2   
    47   43   53 1   
    48   45   46 1   
    49   45   51 1   
    50   45   52 1   
    51   46   47 1   
    52   46   48 1   
    53   53   54 1   
    54   53   57 1   
    55   54   55 1   
    56   54   58 1   
    57   54   59 1   
    58   55   56 2   
    59   55   60 1   
    60   60   61 1   
    61   60   68 1   
    62   61   62 1   
    63   61   64 1   
    64   61   69 1   
    65   62   63 2   
    66   62   72 1   
    67   64   65 1   
    68   64   70 1   
    69   64   71 1   
    70   65   66 1   
    71   65   67 1   
    72   72   73 1   
    73   72   76 1   
    74   73   74 1   
    75   73   77 1   
    76   73   78 1   
    77   74   75 2   
    78   74   79 1   
    79   79   80 1   
    80   79   86 1   
    81   80   81 1   
    82   80   83 1   
    83   80   87 1   
    84   81   82 2   
    85   81   93 1   
    86   83   84 1   
    87   83   85 1   
    88   83   88 1   
    89   84   90 1   
    90   84   91 1   
    91   84   92 1   
    92   85   89 1   
    93   93   94 1   
    94   93  101 1   
    95   94   95 1   
    96   94   97 1   
    97   94  102 1   
    98   95   96 2   
    99   95  112 1   
   100   97   98 1   
   101   97   99 1   
   102   97  103 1   
   103   98  100 1   
   104   98  104 1   
   105   98  105 1   
   106   99  106 1   
   107   99  107 1   
   108   99  108 1   
   109  100  109 1   
   110  100  110 1   
   111  100  111 1   
   112  112  113 1   
   113  112  119 1   
   114  113  114 1   
   115  113  116 1   
   116  113  120 1   
   117  114  115 2   
   118  114  126 1   
   119  116  117 1   
   120  116  118 1   
   121  116  121 1   
   122  117  123 1   
   123  117  124 1   
   124  117  125 1   
   125  118  122 1   
   126  126  127 1   
   127  126  133 1   
   128  127  128 1   
   129  127  130 1   
   130  127  134 1   
   131  128  129 2   
   132  128  140 1   
   133  130  131 1   
   134  130  132 1   
   135  130  135 1   
   136  131  137 1   
   137  131  138 1   
   138  131  139 1   
   139  132  136 1   
   140  140  141 1   
   141  140  149 1   
   142  141  142 1   
   143  141  144 1   
   144  141  150 1   
   145  142  143 2   
   146  142  162 1   
   147  144  145 1   
   148  144  151 1   
   149  144  152 1   
   150  145  146 1   
   151  145  153 1   
   152  145  154 1   
   153  146  147 1   
   154  146  155 1   
   155  146  156 1   
   156  147  148 1   
   157  147  157 1   
   158  147  158 1   
   159  148  159 1   
   160  148  160 1   
   161  148  161 1   
   162  162  163 1   
   163  162  171 1   
   164  163  164 1   
   165  163  166 1   
   166  163  172 1   
   167  164  165 2   
   168  164  177 1   
   169  166  167 1   
   170  166  173 1   
   171  166  174 1   
   172  167  168 1   
   173  167  175 1   
   174  167  176 1   
   175  168  169 1   
   176  168  170 1   
   177  177  178 1   
   178  177  182 1   
   179  178  179 1   
   180  178  180 1   
   181  178  181 1   
   182  184  185 1   
   183  184  186 1   
   184  187  188 1   
   185  187  189 1   
   186  190  191 1   
   187  190  192 1   
   188  193  194 1   
   189  193  195 1   
@<TRIPOS>SUBSTRUCTURE
     1 MOL         1 TEMP              0 ****  ****    0 ROOT
