@<TRIPOS>MOLECULE
MOL
  181   177     1     0     0
SMALL
resp


@<TRIPOS>ATOM
      1 C1          6.0480   -5.7700    5.0130 c3        1 MOL     -0.441428
      2 C2          5.1680   -4.6940    4.2720 c         1 MOL      0.722307
      3 O1          4.5600   -3.8260    4.8700 o         1 MOL     -0.575493
      4 H1          5.8330   -5.7410    6.0820 hc        1 MOL      0.104748
      5 H2          5.8180   -6.7610    4.6230 hc        1 MOL      0.104748
      6 H3          7.1030   -5.5510    4.8510 hc        1 MOL      0.104748
      7 N1          5.0990   -4.6190    2.9500 n         1 MOL     -0.504133
      8 C3          5.8460   -5.3380    1.9720 c3        1 MOL      0.010434
      9 C4          4.9520   -5.5920    0.6800 c         1 MOL      0.600075
     10 O2          3.7580   -5.3940    0.6990 o         1 MOL     -0.480836
     11 C5          7.2260   -4.6400    1.7610 c3        1 MOL      0.045028
     12 C6          7.0300   -3.2560    1.0910 c         1 MOL      0.690919
     13 O3          6.7970   -3.2600   -0.1420 o         1 MOL     -0.700575
     14 O4          7.2980   -2.2140    1.7860 o         1 MOL     -0.700575
     15 H4          4.5870   -3.8310    2.5640 hn        1 MOL      0.303133
     16 H5          6.1140   -6.2670    2.4650 h1        1 MOL      0.025657
     17 H6          7.8150   -5.3170    1.1480 hc        1 MOL     -0.031189
     18 H7          7.8050   -4.6040    2.6830 hc        1 MOL     -0.031189
     19 N2          5.5800   -6.0790   -0.3980 n         1 MOL     -0.640588
     20 C7          5.0090   -6.2270   -1.7410 c3        1 MOL      0.465030
     21 C8          4.3090   -4.9470   -2.3220 c         1 MOL      0.279042
     22 O5          3.3370   -5.0840   -3.1130 o         1 MOL     -0.535807
     23 C9          4.0530   -7.4410   -1.7350 c3        1 MOL     -0.530666
     24 H8          6.5670   -6.2720   -0.4390 hn        1 MOL      0.304902
     25 H9          5.7850   -6.5030   -2.4580 h1        1 MOL     -0.023217
     26 H10         3.0630   -7.1220   -1.4160 hc        1 MOL      0.139785
     27 H11         3.9390   -7.7980   -2.7500 hc        1 MOL      0.139785
     28 H12         4.3420   -8.2440   -1.0510 hc        1 MOL      0.139785
     29 N3          4.6550   -3.7690   -1.8680 n         1 MOL     -0.144409
     30 C10         3.9690   -2.5200   -2.0330 c3        1 MOL      0.070588
     31 C11         4.8610   -1.4030   -2.5660 c         1 MOL      0.396920
     32 O6          6.0850   -1.4690   -2.5920 o         1 MOL     -0.520592
     33 C12         3.4460   -2.1740   -0.6040 c3        1 MOL     -0.022200
     34 C13         4.2800   -1.6650    0.5920 c         1 MOL      0.425608
     35 O7          5.1600   -0.8250    0.3570 o         1 MOL     -0.553570
     36 O8          4.0800   -2.0370    1.7530 o         1 MOL     -0.553570
     37 H13         5.3860   -3.7730   -1.1630 hn        1 MOL      0.029350
     38 H14         3.1010   -2.5800   -2.6880 h1        1 MOL      0.069961
     39 H15         2.7770   -2.9420   -0.1870 hc        1 MOL      0.062326
     40 H16         2.6910   -1.4020   -0.7770 hc        1 MOL      0.062326
     41 N4          4.2470   -0.3050   -2.9890 n         1 MOL     -0.297898
     42 C14         4.8990    0.8490   -3.4780 c3        1 MOL     -0.286758
     43 C15         5.5220    1.7550   -2.3960 c         1 MOL      0.442253
     44 O9          6.4330    1.3280   -1.6250 o         1 MOL     -0.527698
     45 H17         3.2430   -0.1860   -3.0480 hn        1 MOL      0.295993
     46 H18         4.1120    1.4530   -3.9230 h1        1 MOL      0.148944
     47 H19         5.6020    0.6020   -4.2730 h1        1 MOL      0.148944
     48 N5          5.1020    3.0440   -2.4530 n         1 MOL     -0.424949
     49 C16         5.4090    3.9720   -1.4190 c3        1 MOL      0.123755
     50 C17         4.0860    4.6100   -0.9590 c         1 MOL      0.751050
     51 O10         3.1730    4.7330   -1.7310 o         1 MOL     -0.493304
     52 C18         6.4480    5.0590   -1.8320 c3        1 MOL     -0.536383
     53 C19         7.6970    4.3780   -2.4300 c         1 MOL      0.902183
     54 N6          7.8410    4.2010   -3.7540 n         1 MOL     -0.842083
     55 O11         8.5870    3.9830   -1.7100 o         1 MOL     -0.617579
     56 H20         4.3950    3.2470   -3.1450 hn        1 MOL      0.275943
     57 H21         5.8560    3.4690   -0.5610 h1        1 MOL      0.003579
     58 H22         6.6950    5.5600   -0.8860 hc        1 MOL      0.144982
     59 H23         6.0420    5.7520   -2.5670 hc        1 MOL      0.144982
     60 H24         7.0780    4.4530   -4.3690 hn        1 MOL      0.363396
     61 H25         8.3270    3.4020   -4.1250 hn        1 MOL      0.363396
     62 N7          4.0050    4.9570    0.3640 n         1 MOL     -0.678886
     63 C20         2.9340    5.4400    1.1080 c3        1 MOL      0.185701
     64 C21         2.3340    6.8110    0.5350 c         1 MOL      0.530762
     65 O12         2.9190    7.5540   -0.2170 o         1 MOL     -0.537497
     66 H26         4.8250    4.8480    0.9470 hn        1 MOL      0.342878
     67 H27         3.3010    5.6560    2.1070 h1        1 MOL      0.026716
     68 H28         2.1590    4.7150    1.3730 h1        1 MOL      0.026716
     69 N8          1.0760    7.0700    0.9470 n         1 MOL     -0.600861
     70 C22         0.2380    6.3280    1.9310 c3        1 MOL      0.044550
     71 C23        -0.5730    5.1250    1.2610 c         1 MOL      0.497399
     72 O13        -1.1930    5.2190    0.2210 o         1 MOL     -0.500233
     73 C24        -0.5730    7.3130    2.7210 c3        1 MOL      0.336552
     74 C25        -1.7820    7.8900    1.9210 c3        1 MOL     -0.508826
     75 O14        -0.8630    6.7150    3.9360 oh        1 MOL     -0.638104
     76 H29         0.6900    7.8230    0.3960 hn        1 MOL      0.354535
     77 H30         0.9650    5.8980    2.6200 h1        1 MOL      0.057896
     78 H31         0.1120    8.1310    2.9690 h1        1 MOL     -0.028216
     79 H32        -1.3600    7.3980    4.4030 ho        1 MOL      0.416827
     80 H33        -1.3880    8.0660    0.9220 hc        1 MOL      0.150099
     81 H34        -2.6130    7.1880    1.9580 hc        1 MOL      0.150099
     82 H35        -2.0800    8.7550    2.5060 hc        1 MOL      0.150099
     83 N9         -0.6640    4.0150    1.9950 n         1 MOL     -0.305460
     84 C26        -1.4770    2.8810    1.5920 c3        1 MOL      0.163845
     85 C27        -2.7840    2.7670    2.3870 c         1 MOL      0.428920
     86 O15        -2.7130    3.0460    3.6420 o         1 MOL     -0.592057
     87 C28        -0.6380    1.5400    1.8440 c3        1 MOL     -0.004875
     88 C29         0.7260    1.6680    1.0800 c3        1 MOL     -0.164152
     89 C30        -1.3810    0.2740    1.5160 c3        1 MOL      0.032402
     90 C31         0.6540    2.0550   -0.4470 c3        1 MOL     -0.250111
     91 H36        -0.2190    3.9790    2.9120 hn        1 MOL      0.233684
     92 H37        -1.6370    2.8950    0.5190 h1        1 MOL      0.125003
     93 H38        -0.4390    1.5140    2.9090 hc        1 MOL      0.020372
     94 H39         1.3030    0.7770    1.3280 hc        1 MOL      0.049379
     95 H40         1.2780    2.4500    1.6030 hc        1 MOL      0.049379
     96 H41        -0.7730   -0.6150    1.7080 hc        1 MOL      0.005904
     97 H42        -2.2390    0.0580    2.1670 hc        1 MOL      0.005904
     98 H43        -1.7750    0.2530    0.5030 hc        1 MOL      0.005904
     99 H44         1.6410    2.0810   -0.9180 hc        1 MOL      0.059992
    100 H45         0.0810    1.2460   -0.9070 hc        1 MOL      0.059992
    101 H46         0.1220    2.9820   -0.6800 hc        1 MOL      0.059992
    102 N10        -4.0220    2.4800    1.8840 n         1 MOL     -0.396142
    103 C32        -4.3780    2.0890    0.5110 c3        1 MOL      0.062191
    104 C33        -5.5910    1.1450    0.4480 c         1 MOL      0.520097
    105 O16        -6.0550    0.6590    1.4840 o         1 MOL     -0.558345
    106 C34        -4.5780    3.3450   -0.2750 c3        1 MOL     -0.055999
    107 C35        -5.4850    4.4070    0.3900 c         1 MOL      0.694739
    108 O17        -6.5080    4.0400    1.0690 o         1 MOL     -0.688894
    109 O18        -5.2570    5.6210    0.2810 o         1 MOL     -0.688894
    110 H47        -4.8300    2.6010    2.4820 hn        1 MOL      0.315261
    111 H48        -3.5660    1.4740    0.1360 h1        1 MOL      0.048734
    112 H49        -5.0740    3.0130   -1.1940 hc        1 MOL     -0.035163
    113 H50        -3.6310    3.8420   -0.5170 hc        1 MOL     -0.035163
    114 N11        -6.1220    0.8180   -0.7330 n         1 MOL     -0.615436
    115 C36        -7.5410    0.1290   -0.9540 c3        1 MOL      0.597989
    116 C37        -7.3640   -0.9050   -2.1090 c         1 MOL     -0.014640
    117 O19        -6.8210   -0.5420   -3.1550 o         1 MOL     -0.486944
    118 C38        -8.6220    1.1820   -1.1540 c3        1 MOL     -0.376030
    119 C39        -9.9420    0.6450   -1.7210 ca        1 MOL      0.221694
    120 C40       -10.0570    0.3020   -3.0590 ca        1 MOL     -0.261049
    121 C41       -11.0200    0.5350   -0.8690 ca        1 MOL     -0.261049
    122 C42       -11.2450   -0.2410   -3.5440 ca        1 MOL     -0.028314
    123 C43       -12.2430   -0.0300   -1.3550 ca        1 MOL     -0.028314
    124 C44       -12.3750   -0.3370   -2.7130 ca        1 MOL     -0.214245
    125 H51        -5.6480    1.2000   -1.5480 hn        1 MOL      0.348660
    126 H52        -7.8750   -0.3880   -0.0520 h1        1 MOL     -0.053349
    127 H53        -8.1860    1.9660   -1.7710 hc        1 MOL      0.114652
    128 H54        -8.7410    1.6670   -0.1910 hc        1 MOL      0.114652
    129 H55        -9.2540    0.4710   -3.7520 ha        1 MOL      0.148358
    130 H56       -10.8810    0.7910    0.1690 ha        1 MOL      0.148358
    131 H57       -11.4160   -0.5150   -4.5740 ha        1 MOL      0.078179
    132 H58       -13.0940   -0.0940   -0.7000 ha        1 MOL      0.078179
    133 H59       -13.2700   -0.7440   -3.1600 ha        1 MOL      0.105228
    134 N12        -7.9160   -2.1070   -1.9620 n         1 MOL      0.439345
    135 C45        -8.8580   -2.5230   -0.8830 c3        1 MOL      0.004731
    136 C46        -8.2160   -2.7050    0.5250 c         1 MOL      0.360169
    137 O20        -8.7730   -2.5480    1.5560 o         1 MOL     -0.541489
    138 C47        -9.4860   -3.8940   -1.3090 c3        1 MOL      0.102250
    139 C48        -9.4000   -3.8400   -2.8100 c3        1 MOL     -0.000743
    140 C49        -8.1180   -3.0560   -3.0900 c3        1 MOL     -0.104871
    141 H60        -9.7870   -1.9570   -0.9120 h1        1 MOL      0.002814
    142 H61        -8.8860   -4.6800   -0.8630 hc        1 MOL     -0.019830
    143 H62       -10.5190   -3.9780   -0.9580 hc        1 MOL     -0.019830
    144 H63        -9.3970   -4.8500   -3.1900 hc        1 MOL     -0.021685
    145 H64       -10.2670   -3.2420   -3.1000 hc        1 MOL     -0.021685
    146 H65        -7.2220   -3.6820   -3.1500 h1        1 MOL      0.041201
    147 H66        -8.3260   -2.5480   -4.0320 h1        1 MOL      0.041201
    148 N13        -6.8830   -2.9420    0.4980 n         1 MOL     -0.155722
    149 C50        -6.0160   -3.0930    1.6590 c3        1 MOL      0.066939
    150 C51        -6.4950   -4.2640    2.5730 c         1 MOL      0.416726
    151 O21        -6.6920   -5.4610    2.0880 o         1 MOL     -0.570342
    152 C52        -4.5420   -3.3930    1.2140 c3        1 MOL     -0.063273
    153 C53        -3.7470   -2.3390    0.4220 c3        1 MOL      0.053339
    154 C54        -4.0620   -2.2190   -1.0610 c         1 MOL      0.701659
    155 O22        -3.4460   -1.3220   -1.6940 o         1 MOL     -0.701792
    156 O23        -4.7880   -3.0400   -1.5880 o         1 MOL     -0.701792
    157 H67        -6.4580   -3.0910   -0.4000 hn        1 MOL      0.053738
    158 H68        -6.0730   -2.1700    2.2290 h1        1 MOL      0.121000
    159 H69        -4.4910   -4.3570    0.6960 hc        1 MOL      0.022774
    160 H70        -4.0240   -3.5850    2.1470 hc        1 MOL      0.022774
    161 H71        -2.6680   -2.4700    0.4820 hc        1 MOL     -0.053468
    162 H72        -3.9590   -1.3610    0.8640 hc        1 MOL     -0.053468
    163 N14        -6.3860   -4.2000    3.9480 n         1 MOL     -0.361917
    164 C55        -6.2010   -3.0140    4.8380 c3        1 MOL     -0.018298
    165 H73        -5.3990   -3.2160    5.5490 h1        1 MOL      0.042572
    166 H74        -5.9400   -2.1440    4.2350 h1        1 MOL      0.042572
    167 H75        -7.1250   -2.8180    5.3810 h1        1 MOL      0.042572
    168 H76        -6.5700   -5.0650    4.4330 hn        1 MOL      0.256256
    169 Ca1         7.5130   -0.6500   -0.2980 Ca        1 MOL      1.756678
    170 O24         9.8430   -2.1510    0.3520 oh        1 MOL     -0.855174
    171 H77        10.1490   -1.8340    1.2060 ho        1 MOL      0.411056
    172 H78        10.6310   -2.5450   -0.0370 ho        1 MOL      0.411056
    173 O25         9.0910    1.6800   -0.4280 oh        1 MOL     -0.855174
    174 H79         8.8380    2.3750   -1.0460 ho        1 MOL      0.411056
    175 H80         9.9920    1.8720   -0.1900 ho        1 MOL      0.411056
    176 O26         8.9850   -0.8710   -2.4510 oh        1 MOL     -0.855174
    177 H81         9.8460   -1.2620   -2.5950 ho        1 MOL      0.411056
    178 H82         8.4650   -1.1340   -3.2090 ho        1 MOL      0.411056
    179 O27         6.8900    1.3110    1.3310 oh        1 MOL     -0.855174
    180 H83         7.6390    1.9040    1.4450 ho        1 MOL      0.411056
    181 H84         6.2040    1.8590    0.9430 ho        1 MOL      0.411056
@<TRIPOS>BOND
     1    1    2 1   
     2    1    4 1   
     3    1    5 1   
     4    1    6 1   
     5    2    3 2   
     6    2    7 1   
     7    7    8 1   
     8    7   15 1   
     9    8    9 1   
    10    8   11 1   
    11    8   16 1   
    12    9   10 2   
    13    9   19 1   
    14   11   12 1   
    15   11   17 1   
    16   11   18 1   
    17   12   13 1   
    18   12   14 1   
    19   19   20 1   
    20   19   24 1   
    21   20   21 1   
    22   20   23 1   
    23   20   25 1   
    24   21   22 2   
    25   21   29 1   
    26   23   26 1   
    27   23   27 1   
    28   23   28 1   
    29   29   30 1   
    30   29   37 1   
    31   30   31 1   
    32   30   33 1   
    33   30   38 1   
    34   31   32 2   
    35   31   41 1   
    36   33   34 1   
    37   33   39 1   
    38   33   40 1   
    39   34   35 1   
    40   34   36 1   
    41   41   42 1   
    42   41   45 1   
    43   42   43 1   
    44   42   46 1   
    45   42   47 1   
    46   43   44 2   
    47   43   48 1   
    48   48   49 1   
    49   48   56 1   
    50   49   50 1   
    51   49   52 1   
    52   49   57 1   
    53   50   51 2   
    54   50   62 1   
    55   52   53 1   
    56   52   58 1   
    57   52   59 1   
    58   53   54 1   
    59   53   55 2   
    60   54   60 1   
    61   54   61 1   
    62   62   63 1   
    63   62   66 1   
    64   63   64 1   
    65   63   67 1   
    66   63   68 1   
    67   64   65 2   
    68   64   69 1   
    69   69   70 1   
    70   69   76 1   
    71   70   71 1   
    72   70   73 1   
    73   70   77 1   
    74   71   72 2   
    75   71   83 1   
    76   73   74 1   
    77   73   75 1   
    78   73   78 1   
    79   74   80 1   
    80   74   81 1   
    81   74   82 1   
    82   75   79 1   
    83   83   84 1   
    84   83   91 1   
    85   84   85 1   
    86   84   87 1   
    87   84   92 1   
    88   85   86 2   
    89   85  102 1   
    90   87   88 1   
    91   87   89 1   
    92   87   93 1   
    93   88   90 1   
    94   88   94 1   
    95   88   95 1   
    96   89   96 1   
    97   89   97 1   
    98   89   98 1   
    99   90   99 1   
   100   90  100 1   
   101   90  101 1   
   102  102  103 1   
   103  102  110 1   
   104  103  104 1   
   105  103  106 1   
   106  103  111 1   
   107  104  105 2   
   108  104  114 1   
   109  106  107 1   
   110  106  112 1   
   111  106  113 1   
   112  107  108 1   
   113  107  109 1   
   114  114  115 1   
   115  114  125 1   
   116  115  116 1   
   117  115  118 1   
   118  115  126 1   
   119  116  117 2   
   120  116  134 1   
   121  118  119 1   
   122  118  127 1   
   123  118  128 1   
   124  119  120 ar  
   125  119  121 ar  
   126  120  122 ar  
   127  120  129 1   
   128  121  123 ar  
   129  121  130 1   
   130  122  124 ar  
   131  122  131 1   
   132  123  124 ar  
   133  123  132 1   
   134  124  133 1   
   135  134  135 1   
   136  134  140 1   
   137  135  136 1   
   138  135  138 1   
   139  135  141 1   
   140  136  137 2   
   141  136  148 1   
   142  138  139 1   
   143  138  142 1   
   144  138  143 1   
   145  139  140 1   
   146  139  144 1   
   147  139  145 1   
   148  140  146 1   
   149  140  147 1   
   150  148  149 1   
   151  148  157 1   
   152  149  150 1   
   153  149  152 1   
   154  149  158 1   
   155  150  151 2   
   156  150  163 1   
   157  152  153 1   
   158  152  159 1   
   159  152  160 1   
   160  153  154 1   
   161  153  161 1   
   162  153  162 1   
   163  154  155 1   
   164  154  156 1   
   165  163  164 1   
   166  163  168 1   
   167  164  165 1   
   168  164  166 1   
   169  164  167 1   
   170  170  171 1   
   171  170  172 1   
   172  173  174 1   
   173  173  175 1   
   174  176  177 1   
   175  176  178 1   
   176  179  180 1   
   177  179  181 1   
@<TRIPOS>SUBSTRUCTURE
     1 MOL         1 TEMP              0 ****  ****    0 ROOT
