@<TRIPOS>MOLECULE
MOL
  181   177     1     0     0
SMALL
resp


@<TRIPOS>ATOM
      1 C1        -11.0730   -6.3750   -1.4200 c3        1 MOL     -0.276771
      2 C2         -9.7960   -5.7010   -0.8650 c         1 MOL      0.623110
      3 O1         -8.8180   -6.3630   -0.6100 o         1 MOL     -0.581309
      4 H1        -11.1230   -6.2260   -2.4990 hc        1 MOL      0.075138
      5 H2        -11.0450   -7.4440   -1.2020 hc        1 MOL      0.075138
      6 H3        -11.9520   -5.9320   -0.9510 hc        1 MOL      0.075138
      7 N1         -9.6400   -4.3610   -0.9370 n         1 MOL     -0.511702
      8 C3        -10.5760   -3.2550   -1.3050 c3        1 MOL      0.136054
      9 C4        -10.8770   -2.1090   -0.3260 c         1 MOL      0.505066
     10 O2        -10.0020   -1.8100    0.4790 o         1 MOL     -0.578968
     11 C5        -10.0350   -2.6330   -2.6190 c3        1 MOL     -0.362901
     12 C6         -8.5670   -2.2410   -2.5180 c         1 MOL      0.785170
     13 O3         -7.7980   -2.3870   -3.5180 o         1 MOL     -0.699809
     14 O4         -8.1220   -1.6820   -1.5410 o         1 MOL     -0.699809
     15 H4         -8.7470   -4.1570   -0.5060 hn        1 MOL      0.355627
     16 H5        -11.4990   -3.7700   -1.5380 h1        1 MOL      0.023606
     17 H6        -10.6530   -1.7440   -2.7880 hc        1 MOL      0.087535
     18 H7        -10.1180   -3.3270   -3.4510 hc        1 MOL      0.087535
     19 N2        -12.1250   -1.6660   -0.3950 n         1 MOL     -0.486778
     20 C7        -12.8460   -0.7970    0.5600 c3        1 MOL      0.247342
     21 C8        -12.1340    0.5120    0.9720 c         1 MOL      0.404408
     22 O5        -12.5450    1.6080    0.6200 o         1 MOL     -0.545667
     23 C9        -13.4460   -1.5380    1.6440 c3        1 MOL     -0.289130
     24 H8        -12.7360   -2.0440   -1.1050 hn        1 MOL      0.301817
     25 H9        -13.7020   -0.3650    0.0420 h1        1 MOL      0.014242
     26 H10       -13.8710   -2.4930    1.3340 hc        1 MOL      0.082829
     27 H11       -12.7890   -1.7530    2.4840 hc        1 MOL      0.082829
     28 H12       -14.1990   -0.9710    2.1980 hc        1 MOL      0.082829
     29 N3        -11.0820    0.4820    1.7950 n         1 MOL     -0.144116
     30 C10       -10.2910    1.5360    2.3740 c3        1 MOL     -0.122636
     31 C11        -9.0950    2.0160    1.5120 c         1 MOL      0.602017
     32 O6         -8.6370    1.2900    0.6050 o         1 MOL     -0.514632
     33 C12        -9.8250    1.1430    3.7910 c3        1 MOL     -0.289247
     34 C13        -9.3750   -0.3330    3.9750 c         1 MOL      0.650307
     35 O7         -9.5360   -0.7900    5.0960 o         1 MOL     -0.648665
     36 O8         -8.9110   -1.0290    3.0490 o         1 MOL     -0.648665
     37 H13       -10.8330   -0.4590    2.0430 hn        1 MOL      0.198365
     38 H14       -10.8330    2.4800    2.5030 h1        1 MOL      0.083279
     39 H15       -10.6280    1.3420    4.4970 hc        1 MOL      0.086192
     40 H16        -9.0740    1.8650    4.1130 hc        1 MOL      0.086192
     41 N4         -8.5590    3.2770    1.7890 n         1 MOL     -0.415164
     42 C14        -7.8240    4.1020    0.8410 c3        1 MOL     -0.451456
     43 C15        -6.4150    3.4480    0.5730 c         1 MOL      0.849401
     44 O9         -5.7640    3.0940    1.5480 o         1 MOL     -0.613576
     45 H17        -8.8470    3.8030    2.5870 hn        1 MOL      0.330350
     46 H18        -7.6150    5.0630    1.3160 h1        1 MOL      0.191676
     47 H19        -8.4060    4.0410   -0.0770 h1        1 MOL      0.191676
     48 N5         -5.9270    3.4920   -0.6790 n         1 MOL     -0.771131
     49 C16        -4.6600    2.8190   -0.9600 c3        1 MOL      0.418819
     50 C17        -3.4290    3.7640   -1.2750 c         1 MOL      0.513693
     51 O10        -3.4640    4.5580   -2.2840 o         1 MOL     -0.516017
     52 C18        -4.8500    1.8250   -2.1150 c3        1 MOL     -0.315131
     53 C19        -5.9170    0.7750   -1.8840 c         1 MOL      0.752237
     54 N6         -6.7170    0.4510   -2.8340 n         1 MOL     -0.669529
     55 O11        -6.0610    0.2900   -0.7800 o         1 MOL     -0.703560
     56 H20        -6.3890    3.9960   -1.4260 hn        1 MOL      0.374947
     57 H21        -4.3810    2.1350   -0.1650 h1        1 MOL     -0.059495
     58 H22        -3.9220    1.3310   -2.4100 hc        1 MOL      0.063100
     59 H23        -5.1120    2.5530   -2.8910 hc        1 MOL      0.063100
     60 H24        -6.5140    0.7010   -3.7910 hn        1 MOL      0.333802
     61 H25        -7.3810   -0.3110   -2.7050 hn        1 MOL      0.333802
     62 N7         -2.3560    3.5390   -0.4940 n         1 MOL     -0.562085
     63 C20        -0.9300    3.8450   -0.9450 c3        1 MOL      0.041833
     64 C21        -0.3460    5.2120   -0.5110 c         1 MOL      0.688993
     65 O12        -0.8810    5.9270    0.3230 o         1 MOL     -0.569727
     66 H26        -2.4530    3.0040    0.3550 hn        1 MOL      0.347605
     67 H27        -0.9160    3.6890   -2.0210 h1        1 MOL      0.066855
     68 H28        -0.2570    3.1350   -0.4720 h1        1 MOL      0.066855
     69 N8          0.7680    5.6820   -1.0090 n         1 MOL     -0.611852
     70 C22         1.7760    5.0110   -1.8490 c3        1 MOL      0.101135
     71 C23         2.4740    3.9220   -1.0380 c         1 MOL      0.371618
     72 O13         2.6810    3.9710    0.1800 o         1 MOL     -0.483284
     73 C24         2.8090    6.0860   -2.3670 c3        1 MOL      0.368822
     74 C25         3.9980    5.5290   -3.2420 c3        1 MOL     -0.355049
     75 O14         2.1990    7.0740   -3.1270 oh        1 MOL     -0.668249
     76 H29         0.9510    6.6700   -0.9320 hn        1 MOL      0.346690
     77 H30         1.3250    4.5220   -2.7130 h1        1 MOL      0.071764
     78 H31         3.2850    6.6460   -1.5610 h1        1 MOL      0.018794
     79 H32         2.8630    7.6670   -3.4840 ho        1 MOL      0.409502
     80 H33         4.5240    6.3470   -3.7290 hc        1 MOL      0.093837
     81 H34         4.7700    5.0550   -2.6440 hc        1 MOL      0.093837
     82 H35         3.7280    4.7140   -3.9180 hc        1 MOL      0.093837
     83 N9          2.8770    2.8690   -1.7280 n         1 MOL     -0.577956
     84 C26         3.7090    1.7360   -1.2580 c3        1 MOL      0.166566
     85 C27         5.0150    1.6900   -2.1900 c         1 MOL      0.661144
     86 O15         4.8150    1.5390   -3.3800 o         1 MOL     -0.549762
     87 C28         2.9480    0.4280   -1.2590 c3        1 MOL     -0.002771
     88 C29         1.9020    0.4080   -0.1020 c3        1 MOL      0.111355
     89 C30         3.8570   -0.7330   -0.9590 c3        1 MOL     -0.128748
     90 C31         0.8850   -0.7830    0.0320 c3        1 MOL     -0.361586
     91 H36         2.6560    2.8590   -2.7120 hn        1 MOL      0.273514
     92 H37         3.9490    1.9070   -0.2080 h1        1 MOL      0.081872
     93 H38         2.4960    0.3510   -2.2460 hc        1 MOL      0.022697
     94 H39         1.1950    1.2250   -0.2940 hc        1 MOL      0.024701
     95 H40         2.3360    0.6000    0.8760 hc        1 MOL      0.024701
     96 H41         4.4950   -0.9130   -1.8250 hc        1 MOL      0.049152
     97 H42         4.3270   -0.7170    0.0300 hc        1 MOL      0.049152
     98 H43         3.1970   -1.5990   -1.0040 hc        1 MOL      0.049152
     99 H44        -0.0300   -0.3910    0.4660 hc        1 MOL      0.079726
    100 H45         0.5990   -1.0240   -0.9900 hc        1 MOL      0.079726
    101 H46         1.3310   -1.6050    0.6030 hc        1 MOL      0.079726
    102 N10         6.2930    1.5810   -1.6700 n         1 MOL     -0.682792
    103 C32         6.6670    1.6550   -0.2490 c3        1 MOL      0.436763
    104 C33         7.9550    0.8370    0.0690 c         1 MOL      0.621029
    105 O16         8.7890    0.6150   -0.8430 o         1 MOL     -0.581827
    106 C34         6.9310    3.1320    0.2480 c3        1 MOL     -0.450109
    107 C35         7.0150    3.3350    1.7920 c         1 MOL      0.745145
    108 O17         6.3890    2.5950    2.5770 o         1 MOL     -0.721321
    109 O18         7.9340    4.1360    2.1870 o         1 MOL     -0.721321
    110 H47         6.9960    1.3170   -2.3390 hn        1 MOL      0.336664
    111 H48         5.8920    1.2310    0.3850 h1        1 MOL     -0.091910
    112 H49         6.0510    3.7120   -0.0160 hc        1 MOL      0.090742
    113 H50         7.8130    3.5630   -0.2290 hc        1 MOL      0.090742
    114 N11         8.1350    0.3940    1.3080 n         1 MOL     -0.685727
    115 C36         9.3980   -0.1180    1.8010 c3        1 MOL      0.575401
    116 C37         9.3440   -1.5250    2.4320 c         1 MOL      0.095026
    117 O19         8.3950   -1.7640    3.2120 o         1 MOL     -0.475299
    118 C38        10.0690    0.9060    2.7290 c3        1 MOL     -0.258761
    119 C39        11.4920    0.7070    3.0960 ca        1 MOL      0.142270
    120 C40        11.7160    0.0410    4.2660 ca        1 MOL     -0.168470
    121 C41        12.5510    1.1250    2.2880 ca        1 MOL     -0.168470
    122 C42        13.0480   -0.2470    4.6230 ca        1 MOL     -0.110927
    123 C43        13.8890    0.8170    2.5910 ca        1 MOL     -0.110927
    124 C44        14.1150    0.0950    3.7440 ca        1 MOL     -0.148353
    125 H51         7.4140    0.6430    1.9830 hn        1 MOL      0.345171
    126 H52        10.0330   -0.1390    0.9130 h1        1 MOL     -0.038559
    127 H53         9.3970    1.0550    3.5730 hc        1 MOL      0.093845
    128 H54        10.0490    1.8070    2.1070 hc        1 MOL      0.093845
    129 H55        10.9270   -0.3580    4.8910 ha        1 MOL      0.128136
    130 H56        12.3440    1.5720    1.3230 ha        1 MOL      0.128136
    131 H57        13.1930   -0.7580    5.5650 ha        1 MOL      0.098238
    132 H58        14.7190    0.9280    1.9090 ha        1 MOL      0.098238
    133 H59        15.1520   -0.0600    3.9810 ha        1 MOL      0.091548
    134 N12        10.1180   -2.5480    1.9880 n         1 MOL      0.011504
    135 C45        10.9730   -2.5780    0.7870 c3        1 MOL     -0.073612
    136 C46        10.1450   -2.7150   -0.5500 c         1 MOL      0.551301
    137 O20        10.6620   -2.7000   -1.6520 o         1 MOL     -0.565938
    138 C47        11.8970   -3.7580    0.8970 c3        1 MOL     -0.099738
    139 C48        11.1680   -4.7050    1.7960 c3        1 MOL     -0.151461
    140 C49        10.2160   -3.8730    2.7070 c3        1 MOL     -0.034499
    141 H60        11.5860   -1.6920    0.6130 h1        1 MOL      0.059477
    142 H61        11.9700   -4.1950   -0.0990 hc        1 MOL      0.059959
    143 H62        12.8170   -3.4210    1.3560 hc        1 MOL      0.059959
    144 H63        10.6930   -5.3990    1.1040 hc        1 MOL      0.054015
    145 H64        11.9330   -5.1560    2.4400 hc        1 MOL      0.054015
    146 H65         9.2380   -4.3630    2.7410 h1        1 MOL      0.062545
    147 H66        10.5170   -3.7880    3.7510 h1        1 MOL      0.062545
    148 N13         8.8360   -2.9800   -0.4080 n         1 MOL     -0.339876
    149 C50         7.9890   -3.5450   -1.4920 c3        1 MOL      0.323249
    150 C51         7.1660   -4.7100   -0.9230 c         1 MOL      0.247829
    151 O21         6.9870   -4.7540    0.3450 o         1 MOL     -0.561387
    152 C52         6.9520   -2.4890   -2.0740 c3        1 MOL     -0.145709
    153 C53         7.4950   -1.5290   -3.0880 c3        1 MOL     -0.015170
    154 C54         7.4490   -2.0770   -4.4580 c         1 MOL      0.781122
    155 O22         8.0250   -3.1560   -4.7360 o         1 MOL     -0.748645
    156 O23         6.9420   -1.4140   -5.3120 o         1 MOL     -0.748645
    157 H67         8.3530   -2.8510    0.4690 hn        1 MOL      0.278355
    158 H68         8.6020   -3.9730   -2.2960 h1        1 MOL      0.028332
    159 H69         6.5880   -1.7720   -1.3510 hc        1 MOL      0.001383
    160 H70         6.1950   -3.0800   -2.5890 hc        1 MOL      0.001383
    161 H71         8.5640   -1.4380   -2.9250 hc        1 MOL     -0.014519
    162 H72         6.9400   -0.5850   -3.0590 hc        1 MOL     -0.014519
    163 N14         6.6750   -5.6260   -1.7210 n         1 MOL     -0.277405
    164 C55         6.5920   -5.6850   -3.1620 c3        1 MOL      0.042377
    165 H73         6.8670   -4.7170   -3.5810 h1        1 MOL      0.019989
    166 H74         7.2730   -6.4500   -3.5340 h1        1 MOL      0.019989
    167 H75         5.5720   -5.9310   -3.4570 h1        1 MOL      0.019989
    168 H76         6.1270   -6.3870   -1.3380 hn        1 MOL      0.240876
    169 Ca1        -7.4400   -1.2420    0.9270 Ca        1 MOL      1.718402
    170 O24        -6.0260    0.5500    2.3230 oh        1 MOL     -0.840850
    171 H77        -5.3790    0.4500    3.0190 ho        1 MOL      0.417896
    172 H78        -5.8460    1.4130    1.9480 ho        1 MOL      0.417896
    173 O25        -7.6520   -3.9600    1.0390 oh        1 MOL     -0.840850
    174 H79        -8.0050   -4.4720    1.7650 ho        1 MOL      0.417896
    175 H80        -7.0000   -4.5380    0.6380 ho        1 MOL      0.417896
    176 O26        -5.0570   -2.3100    0.0940 oh        1 MOL     -0.840850
    177 H81        -4.1760   -2.4140    0.4440 ho        1 MOL      0.417896
    178 H82        -4.9200   -1.9580   -0.7940 ho        1 MOL      0.417896
    179 O27        -6.1420   -2.4500    3.1030 oh        1 MOL     -0.840850
    180 H83        -6.4260   -2.3960    4.0180 ho        1 MOL      0.417896
    181 H84        -5.3570   -2.9970    3.1260 ho        1 MOL      0.417896
@<TRIPOS>BOND
     1    1    2 1   
     2    1    4 1   
     3    1    5 1   
     4    1    6 1   
     5    2    3 2   
     6    2    7 1   
     7    7    8 1   
     8    7   15 1   
     9    8    9 1   
    10    8   11 1   
    11    8   16 1   
    12    9   10 2   
    13    9   19 1   
    14   11   12 1   
    15   11   17 1   
    16   11   18 1   
    17   12   13 1   
    18   12   14 1   
    19   19   20 1   
    20   19   24 1   
    21   20   21 1   
    22   20   23 1   
    23   20   25 1   
    24   21   22 2   
    25   21   29 1   
    26   23   26 1   
    27   23   27 1   
    28   23   28 1   
    29   29   30 1   
    30   29   37 1   
    31   30   31 1   
    32   30   33 1   
    33   30   38 1   
    34   31   32 2   
    35   31   41 1   
    36   33   34 1   
    37   33   39 1   
    38   33   40 1   
    39   34   35 1   
    40   34   36 1   
    41   41   42 1   
    42   41   45 1   
    43   42   43 1   
    44   42   46 1   
    45   42   47 1   
    46   43   44 2   
    47   43   48 1   
    48   48   49 1   
    49   48   56 1   
    50   49   50 1   
    51   49   52 1   
    52   49   57 1   
    53   50   51 2   
    54   50   62 1   
    55   52   53 1   
    56   52   58 1   
    57   52   59 1   
    58   53   54 1   
    59   53   55 2   
    60   54   60 1   
    61   54   61 1   
    62   62   63 1   
    63   62   66 1   
    64   63   64 1   
    65   63   67 1   
    66   63   68 1   
    67   64   65 2   
    68   64   69 1   
    69   69   70 1   
    70   69   76 1   
    71   70   71 1   
    72   70   73 1   
    73   70   77 1   
    74   71   72 2   
    75   71   83 1   
    76   73   74 1   
    77   73   75 1   
    78   73   78 1   
    79   74   80 1   
    80   74   81 1   
    81   74   82 1   
    82   75   79 1   
    83   83   84 1   
    84   83   91 1   
    85   84   85 1   
    86   84   87 1   
    87   84   92 1   
    88   85   86 2   
    89   85  102 1   
    90   87   88 1   
    91   87   89 1   
    92   87   93 1   
    93   88   90 1   
    94   88   94 1   
    95   88   95 1   
    96   89   96 1   
    97   89   97 1   
    98   89   98 1   
    99   90   99 1   
   100   90  100 1   
   101   90  101 1   
   102  102  103 1   
   103  102  110 1   
   104  103  104 1   
   105  103  106 1   
   106  103  111 1   
   107  104  105 2   
   108  104  114 1   
   109  106  107 1   
   110  106  112 1   
   111  106  113 1   
   112  107  108 1   
   113  107  109 1   
   114  114  115 1   
   115  114  125 1   
   116  115  116 1   
   117  115  118 1   
   118  115  126 1   
   119  116  117 2   
   120  116  134 1   
   121  118  119 1   
   122  118  127 1   
   123  118  128 1   
   124  119  120 ar  
   125  119  121 ar  
   126  120  122 ar  
   127  120  129 1   
   128  121  123 ar  
   129  121  130 1   
   130  122  124 ar  
   131  122  131 1   
   132  123  124 ar  
   133  123  132 1   
   134  124  133 1   
   135  134  135 1   
   136  134  140 1   
   137  135  136 1   
   138  135  138 1   
   139  135  141 1   
   140  136  137 2   
   141  136  148 1   
   142  138  139 1   
   143  138  142 1   
   144  138  143 1   
   145  139  140 1   
   146  139  144 1   
   147  139  145 1   
   148  140  146 1   
   149  140  147 1   
   150  148  149 1   
   151  148  157 1   
   152  149  150 1   
   153  149  152 1   
   154  149  158 1   
   155  150  151 2   
   156  150  163 1   
   157  152  153 1   
   158  152  159 1   
   159  152  160 1   
   160  153  154 1   
   161  153  161 1   
   162  153  162 1   
   163  154  155 1   
   164  154  156 1   
   165  163  164 1   
   166  163  168 1   
   167  164  165 1   
   168  164  166 1   
   169  164  167 1   
   170  170  171 1   
   171  170  172 1   
   172  173  174 1   
   173  173  175 1   
   174  176  177 1   
   175  176  178 1   
   176  179  180 1   
   177  179  181 1   
@<TRIPOS>SUBSTRUCTURE
     1 MOL         1 TEMP              0 ****  ****    0 ROOT
