@<TRIPOS>MOLECULE
MOL
  178   175     1     0     0
SMALL
resp


@<TRIPOS>ATOM
      1 C1          1.3850   -1.1530    5.3420 c3        1 MOL     -0.341678
      2 C2          2.2460   -0.5590    4.1770 c         1 MOL      0.744265
      3 O1          1.8350    0.4050    3.5670 o         1 MOL     -0.543156
      4 H1          1.4080   -2.2410    5.2910 hc        1 MOL      0.080547
      5 H2          1.7920   -0.8250    6.2980 hc        1 MOL      0.080547
      6 H3          0.3560   -0.8070    5.2470 hc        1 MOL      0.080547
      7 N1          3.5140   -1.0500    4.0550 n         1 MOL     -0.746836
      8 C3          4.7230   -0.6020    3.3920 c3        1 MOL      0.471966
      9 C4          5.2900   -1.5180    2.3370 c         1 MOL      0.329531
     10 O2          6.2260   -1.1370    1.5470 o         1 MOL     -0.452720
     11 C5          5.7740   -0.1630    4.4880 c3        1 MOL     -0.201634
     12 C6          7.0090    0.5320    3.9720 c         1 MOL      0.726986
     13 O3          8.1000    0.1160    4.4480 o         1 MOL     -0.709158
     14 O4          6.9450    1.5880    3.3040 o         1 MOL     -0.709158
     15 H4          3.5700   -1.8610    4.6540 hn        1 MOL      0.297193
     16 H5          4.4970    0.3430    2.8890 h1        1 MOL      0.009843
     17 H6          6.0780   -1.0240    5.0910 hc        1 MOL      0.009234
     18 H7          5.3250    0.5970    5.1270 hc        1 MOL      0.009234
     19 N2          4.8300   -2.7570    2.2470 n         1 MOL     -0.397250
     20 C7          5.0490   -3.7970    1.2330 c3        1 MOL      0.324839
     21 C8          4.9100   -3.2930   -0.2310 c         1 MOL      0.325755
     22 O5          3.8670   -3.4530   -0.9160 o         1 MOL     -0.658292
     23 C9          6.4010   -4.4320    1.5980 c3        1 MOL     -0.647607
     24 H8          4.2200   -3.0050    3.0020 hn        1 MOL      0.241071
     25 H9          4.2720   -4.5430    1.4240 h1        1 MOL      0.065116
     26 H10         7.2390   -3.7360    1.4820 hc        1 MOL      0.169896
     27 H11         6.3310   -4.6730    2.6600 hc        1 MOL      0.169896
     28 H12         6.4840   -5.3510    1.0150 hc        1 MOL      0.169896
     29 N3          5.9930   -2.8270   -0.8140 n         1 MOL     -0.134212
     30 C10         6.0670   -2.2310   -2.1800 c3        1 MOL     -0.007767
     31 C11         5.8430   -0.6750   -2.1280 c         1 MOL      0.616917
     32 O6          5.8270   -0.0630   -3.1500 o         1 MOL     -0.586200
     33 C12         7.3500   -2.7420   -2.9450 c3        1 MOL     -0.285958
     34 C13         8.6610   -2.5200   -2.1860 c         1 MOL      0.797944
     35 O7          8.9810   -1.3400   -1.9340 o         1 MOL     -0.737089
     36 O8          9.3470   -3.5110   -1.8290 o         1 MOL     -0.737089
     37 H13         6.8470   -2.8720   -0.2800 hn        1 MOL      0.214573
     38 H14         5.1640   -2.5740   -2.6790 h1        1 MOL      0.120628
     39 H15         7.5090   -2.3270   -3.9400 hc        1 MOL      0.024568
     40 H16         7.1530   -3.7990   -3.1130 hc        1 MOL      0.024568
     41 N4          5.7440   -0.0270   -0.9690 n         1 MOL     -0.289240
     42 C14         5.9310    1.4130   -0.7720 c3        1 MOL      0.168422
     43 C15         4.9650    2.3670   -1.3970 c         1 MOL      0.562572
     44 O9          5.3650    3.4310   -1.8770 o         1 MOL     -0.600004
     45 H17         5.8580   -0.5810   -0.1350 hn        1 MOL      0.166200
     46 H18         6.9280    1.6710   -1.1330 h1        1 MOL      0.014582
     47 H19         5.8990    1.6290    0.2980 h1        1 MOL      0.014582
     48 N5          3.6670    2.0370   -1.3670 n         1 MOL     -0.338098
     49 C16         2.5810    2.6890   -2.1310 c3        1 MOL     -0.023998
     50 C17         2.1680    3.9820   -1.4780 c         1 MOL      0.677135
     51 O10         1.8390    4.1010   -0.2980 o         1 MOL     -0.553230
     52 C18         1.4620    1.6570   -2.3340 c3        1 MOL     -0.471443
     53 C19         2.0420    0.4930   -3.1600 c         1 MOL      0.813534
     54 N6          2.2610    0.7260   -4.3950 n         1 MOL     -0.761063
     55 O11         2.2690   -0.6190   -2.6840 o         1 MOL     -0.750394
     56 H20         3.4700    1.1630   -0.9070 hn        1 MOL      0.208249
     57 H21         3.0060    2.9320   -3.1150 h1        1 MOL      0.055108
     58 H22         0.6540    2.1620   -2.8730 hc        1 MOL      0.159896
     59 H23         1.0540    1.2980   -1.3910 hc        1 MOL      0.159896
     60 H24         1.8840    1.5930   -4.7380 hn        1 MOL      0.362443
     61 H25         2.6990    0.0340   -4.9910 hn        1 MOL      0.362443
     62 N7          2.0990    4.9620   -2.3670 n         1 MOL     -0.449298
     63 C20         1.7930    6.3440   -1.9060 c3        1 MOL     -0.165517
     64 C21         0.2580    6.6530   -1.8420 c         1 MOL      0.566657
     65 O12        -0.5500    6.1990   -2.6360 o         1 MOL     -0.524810
     66 H26         2.0910    4.7580   -3.3560 hn        1 MOL      0.299998
     67 H27         2.2040    7.0520   -2.6100 h1        1 MOL      0.119418
     68 H28         2.2440    6.5460   -0.9290 h1        1 MOL      0.119418
     69 N8         -0.1750    7.3750   -0.8330 n         1 MOL     -0.403501
     70 C22        -1.5320    7.8780   -0.6350 c3        1 MOL     -0.282243
     71 C23        -2.4310    6.8450   -0.0610 c         1 MOL      0.605621
     72 O13        -3.5970    7.1140    0.0150 o         1 MOL     -0.588674
     73 C24        -1.5800    9.1860    0.1470 c3        1 MOL      0.513949
     74 C25        -1.2850    8.9980    1.6570 c3        1 MOL     -0.220184
     75 O14        -0.7170   10.1750   -0.4750 oh        1 MOL     -0.673166
     76 H29         0.5850    7.8970   -0.4050 hn        1 MOL      0.222703
     77 H30        -1.9670    8.1880   -1.5900 h1        1 MOL      0.146178
     78 H31        -2.6010    9.5780    0.0850 h1        1 MOL      0.021173
     79 H32         0.1760    9.8390   -0.6450 ho        1 MOL      0.393186
     80 H33        -2.2150    8.5590    2.0270 hc        1 MOL      0.046007
     81 H34        -0.4870    8.2810    1.8080 hc        1 MOL      0.046007
     82 H35        -1.0250    9.9260    2.1790 hc        1 MOL      0.046007
     83 N9         -1.9300    5.6620    0.3870 n         1 MOL     -0.112079
     84 C26        -2.5790    4.4470    0.8190 c3        1 MOL      0.010635
     85 C27        -2.1460    3.2010    0.0200 c         1 MOL      0.328148
     86 O15        -1.2380    3.2770   -0.8870 o         1 MOL     -0.408168
     87 C28        -2.4200    4.2680    2.3000 c3        1 MOL     -0.059688
     88 C29        -0.9490    4.0650    2.7160 c3        1 MOL     -0.169987
     89 C30        -2.8680    5.4710    3.0970 c3        1 MOL     -0.179767
     90 C31        -0.7030    3.2820    3.9720 c3        1 MOL     -0.053510
     91 H36        -1.0000    5.4560    0.0420 hn        1 MOL      0.069831
     92 H37        -3.6270    4.6480    0.5810 h1        1 MOL      0.051573
     93 H38        -3.0230    3.3870    2.5320 hc        1 MOL      0.050036
     94 H39        -0.4360    5.0290    2.7250 hc        1 MOL      0.134730
     95 H40        -0.3860    3.4180    2.0530 hc        1 MOL      0.134730
     96 H41        -2.8270    5.3540    4.1860 hc        1 MOL      0.047002
     97 H42        -2.4060    6.4330    2.8990 hc        1 MOL      0.047002
     98 H43        -3.9520    5.5330    3.0160 hc        1 MOL      0.047002
     99 H44        -1.0310    2.2550    3.7990 hc        1 MOL      0.016355
    100 H45         0.3250    3.3690    4.3210 hc        1 MOL      0.016355
    101 H46        -1.3280    3.7280    4.7540 hc        1 MOL      0.016355
    102 N10        -2.7580    2.0540    0.2970 n         1 MOL     -0.348247
    103 C32        -2.1800    0.7440   -0.2860 c3        1 MOL      0.009171
    104 C33        -3.3440   -0.2940   -0.4000 c         1 MOL      0.558096
    105 O16        -3.2370   -1.5380   -0.3190 o         1 MOL     -0.532223
    106 C34        -0.9960    0.1950    0.5600 c3        1 MOL     -0.050388
    107 C35        -0.1490   -0.7880   -0.2430 c         1 MOL      0.802919
    108 O17         0.8070   -1.4310    0.2450 o         1 MOL     -0.806639
    109 O18        -0.3620   -1.0140   -1.4440 o         1 MOL     -0.806639
    110 H47        -3.4100    2.0160    1.0640 hn        1 MOL      0.253855
    111 H48        -1.9980    0.9470   -1.3400 h1        1 MOL      0.079505
    112 H49        -1.4020   -0.4160    1.3720 hc        1 MOL      0.053814
    113 H50        -0.2770    0.9350    0.8940 hc        1 MOL      0.053814
    114 N11        -4.5730    0.2240   -0.5250 n         1 MOL     -0.410167
    115 C36        -5.7940   -0.4900   -0.9100 c3        1 MOL      0.250816
    116 C37        -6.0740   -1.7040    0.0860 c         1 MOL      0.247108
    117 O19        -6.0750   -1.5950    1.3260 o         1 MOL     -0.442484
    118 C38        -7.0110    0.4160   -1.0180 c3        1 MOL     -0.282117
    119 C39        -8.2640   -0.3070   -1.4580 ca        1 MOL      0.162857
    120 C40        -8.6070   -0.2870   -2.7750 ca        1 MOL     -0.210236
    121 C41        -9.0990   -0.8010   -0.4320 ca        1 MOL     -0.210236
    122 C42        -9.7490   -1.0560   -3.1590 ca        1 MOL     -0.072304
    123 C43       -10.2740   -1.3820   -0.8020 ca        1 MOL     -0.072304
    124 C44       -10.6080   -1.5720   -2.1690 ca        1 MOL     -0.169430
    125 H51        -4.6490    1.2250   -0.5570 hn        1 MOL      0.206279
    126 H52        -5.6960   -0.9510   -1.8940 h1        1 MOL     -0.011891
    127 H53        -6.8780    1.2320   -1.7130 hc        1 MOL      0.103267
    128 H54        -7.2380    0.8360   -0.0370 hc        1 MOL      0.103267
    129 H55        -7.9400    0.1220   -3.5260 ha        1 MOL      0.138280
    130 H56        -8.8360   -0.6990    0.6120 ha        1 MOL      0.138280
    131 H57        -9.9940   -1.1850   -4.1980 ha        1 MOL      0.099240
    132 H58       -10.9690   -1.7360   -0.0480 ha        1 MOL      0.099240
    133 H59       -11.5810   -1.9870   -2.3900 ha        1 MOL      0.114959
    134 N12        -6.2790   -2.9280   -0.4930 n         1 MOL      0.027544
    135 C45        -6.3950   -4.2460    0.2340 c3        1 MOL     -0.009055
    136 C46        -5.4640   -4.5150    1.3520 c         1 MOL      0.300474
    137 O20        -5.9120   -5.1110    2.3110 o         1 MOL     -0.523196
    138 C47        -6.3010   -5.4080   -0.8320 c3        1 MOL      0.097318
    139 C48        -6.9670   -4.6540   -2.0350 c3        1 MOL     -0.139883
    140 C49        -6.4510   -3.2060   -1.8660 c3        1 MOL      0.018812
    141 H60        -7.4070   -4.3480    0.6380 h1        1 MOL      0.064702
    142 H61        -5.2570   -5.6570   -1.0090 hc        1 MOL      0.015514
    143 H62        -6.7960   -6.3510   -0.5910 hc        1 MOL      0.015514
    144 H63        -6.6490   -5.0590   -2.9920 hc        1 MOL      0.037751
    145 H64        -8.0480   -4.7350   -2.0210 hc        1 MOL      0.037751
    146 H65        -5.4750   -3.1460   -2.3430 h1        1 MOL      0.022517
    147 H66        -7.1270   -2.4450   -2.2520 h1        1 MOL      0.022517
    148 N13        -4.1980   -4.0230    1.4390 n         1 MOL     -0.081534
    149 C50        -3.2210   -3.9790    2.5030 c3        1 MOL     -0.071288
    150 C51        -3.4520   -2.8510    3.5050 c         1 MOL      0.426996
    151 O21        -2.9940   -3.0430    4.6170 o         1 MOL     -0.548460
    152 C52        -1.8470   -3.9290    1.9010 c3        1 MOL      0.075625
    153 C53        -1.4840   -5.1030    0.9350 c3        1 MOL     -0.270604
    154 C54        -0.2920   -4.7560    0.0970 c         1 MOL      0.907000
    155 O22         0.8410   -4.5110    0.5110 o         1 MOL     -0.812358
    156 O23        -0.4880   -4.6330   -1.0990 o         1 MOL     -0.812358
    157 H67        -3.8490   -3.5650    0.6090 hn        1 MOL      0.156822
    158 H68        -3.4220   -4.8570    3.1100 h1        1 MOL      0.095730
    159 H69        -1.1720   -3.8790    2.7520 hc        1 MOL      0.020782
    160 H70        -1.7270   -3.0380    1.2900 hc        1 MOL      0.020782
    161 H71        -2.2920   -5.5540    0.3760 hc        1 MOL      0.023033
    162 H72        -1.1600   -5.9490    1.5440 hc        1 MOL      0.023033
    163 N14        -4.2420   -1.7830    3.2110 n         1 MOL     -0.056171
    164 C55        -4.5670   -0.7480    4.1950 c3        1 MOL     -0.277654
    165 H73        -4.1500    0.2060    3.8700 h1        1 MOL      0.099408
    166 H74        -5.6490   -0.6580    4.2870 h1        1 MOL      0.099408
    167 H75        -4.1410   -1.0180    5.1620 h1        1 MOL      0.099408
    168 H76        -4.6350   -1.6330    2.2960 hn        1 MOL      0.091583
    169 Ca1         1.4330   -2.8770   -1.7280 Ca        1 MOL      1.825006
    170 O24         2.6590   -3.0550   -4.2560 oh        1 MOL     -0.835952
    171 H77         2.8010   -2.4190   -4.9600 ho        1 MOL      0.410516
    172 H78         1.8900   -3.5460   -4.5310 ho        1 MOL      0.410516
    173 O25        -0.2060   -3.5070   -4.0570 oh        1 MOL     -0.835952
    174 H79        -0.5790   -4.1580   -4.6510 ho        1 MOL      0.410516
    175 H80        -0.8970   -2.8380   -3.9690 ho        1 MOL      0.410516
    176 O26         2.5210   -5.4240   -2.1390 oh        1 MOL     -0.835952
    177 H81         3.4440   -5.2900   -2.3540 ho        1 MOL      0.410516
    178 H82         2.4510   -6.3690   -2.0130 ho        1 MOL      0.410516
@<TRIPOS>BOND
     1    1    2 1   
     2    1    4 1   
     3    1    5 1   
     4    1    6 1   
     5    2    3 2   
     6    2    7 1   
     7    7    8 1   
     8    7   15 1   
     9    8    9 1   
    10    8   11 1   
    11    8   16 1   
    12    9   10 2   
    13    9   19 1   
    14   11   12 1   
    15   11   17 1   
    16   11   18 1   
    17   12   13 1   
    18   12   14 1   
    19   19   20 1   
    20   19   24 1   
    21   20   21 1   
    22   20   23 1   
    23   20   25 1   
    24   21   22 2   
    25   21   29 1   
    26   23   26 1   
    27   23   27 1   
    28   23   28 1   
    29   29   30 1   
    30   29   37 1   
    31   30   31 1   
    32   30   33 1   
    33   30   38 1   
    34   31   32 2   
    35   31   41 1   
    36   33   34 1   
    37   33   39 1   
    38   33   40 1   
    39   34   35 1   
    40   34   36 1   
    41   41   42 1   
    42   41   45 1   
    43   42   43 1   
    44   42   46 1   
    45   42   47 1   
    46   43   44 2   
    47   43   48 1   
    48   48   49 1   
    49   48   56 1   
    50   49   50 1   
    51   49   52 1   
    52   49   57 1   
    53   50   51 2   
    54   50   62 1   
    55   52   53 1   
    56   52   58 1   
    57   52   59 1   
    58   53   54 1   
    59   53   55 2   
    60   54   60 1   
    61   54   61 1   
    62   62   63 1   
    63   62   66 1   
    64   63   64 1   
    65   63   67 1   
    66   63   68 1   
    67   64   65 2   
    68   64   69 1   
    69   69   70 1   
    70   69   76 1   
    71   70   71 1   
    72   70   73 1   
    73   70   77 1   
    74   71   72 2   
    75   71   83 1   
    76   73   74 1   
    77   73   75 1   
    78   73   78 1   
    79   74   80 1   
    80   74   81 1   
    81   74   82 1   
    82   75   79 1   
    83   83   84 1   
    84   83   91 1   
    85   84   85 1   
    86   84   87 1   
    87   84   92 1   
    88   85   86 2   
    89   85  102 1   
    90   87   88 1   
    91   87   89 1   
    92   87   93 1   
    93   88   90 1   
    94   88   94 1   
    95   88   95 1   
    96   89   96 1   
    97   89   97 1   
    98   89   98 1   
    99   90   99 1   
   100   90  100 1   
   101   90  101 1   
   102  102  103 1   
   103  102  110 1   
   104  103  104 1   
   105  103  106 1   
   106  103  111 1   
   107  104  105 2   
   108  104  114 1   
   109  106  107 1   
   110  106  112 1   
   111  106  113 1   
   112  107  108 1   
   113  107  109 1   
   114  114  115 1   
   115  114  125 1   
   116  115  116 1   
   117  115  118 1   
   118  115  126 1   
   119  116  117 2   
   120  116  134 1   
   121  118  119 1   
   122  118  127 1   
   123  118  128 1   
   124  119  120 ar  
   125  119  121 ar  
   126  120  122 ar  
   127  120  129 1   
   128  121  123 ar  
   129  121  130 1   
   130  122  124 ar  
   131  122  131 1   
   132  123  124 ar  
   133  123  132 1   
   134  124  133 1   
   135  134  135 1   
   136  134  140 1   
   137  135  136 1   
   138  135  138 1   
   139  135  141 1   
   140  136  137 2   
   141  136  148 1   
   142  138  139 1   
   143  138  142 1   
   144  138  143 1   
   145  139  140 1   
   146  139  144 1   
   147  139  145 1   
   148  140  146 1   
   149  140  147 1   
   150  148  149 1   
   151  148  157 1   
   152  149  150 1   
   153  149  152 1   
   154  149  158 1   
   155  150  151 2   
   156  150  163 1   
   157  152  153 1   
   158  152  159 1   
   159  152  160 1   
   160  153  154 1   
   161  153  161 1   
   162  153  162 1   
   163  154  155 1   
   164  154  156 1   
   165  163  164 1   
   166  163  168 1   
   167  164  165 1   
   168  164  166 1   
   169  164  167 1   
   170  170  171 1   
   171  170  172 1   
   172  173  174 1   
   173  173  175 1   
   174  176  177 1   
   175  176  178 1   
@<TRIPOS>SUBSTRUCTURE
     1 MOL         1 TEMP              0 ****  ****    0 ROOT
