@<TRIPOS>MOLECULE
MOL
  178   175     1     0     0
SMALL
resp


@<TRIPOS>ATOM
      1 C1        -11.3670   -5.9300   -2.2890 c3        1 MOL     -0.373020
      2 C2        -10.3530   -5.3400   -1.3160 c         1 MOL      0.711814
      3 O1         -9.8050   -5.9510   -0.4490 o         1 MOL     -0.613703
      4 H1        -11.6230   -6.9420   -1.9770 hc        1 MOL      0.095529
      5 H2        -12.2660   -5.3140   -2.2960 hc        1 MOL      0.095529
      6 H3        -10.9360   -5.9560   -3.2910 hc        1 MOL      0.095529
      7 N1        -10.0770   -4.0470   -1.3330 n         1 MOL     -0.602793
      8 C3        -10.4410   -2.9760   -2.2320 c3        1 MOL      0.312737
      9 C4        -11.4550   -2.1440   -1.4870 c         1 MOL      0.582371
     10 O2        -12.4260   -1.6920   -2.1160 o         1 MOL     -0.596575
     11 C5         -9.2240   -2.2160   -2.6850 c3        1 MOL     -0.475994
     12 C6         -8.1860   -1.7170   -1.6900 c         1 MOL      1.045149
     13 O3         -7.0840   -1.2890   -2.0770 o         1 MOL     -0.841503
     14 O4         -8.3330   -1.8850   -0.4860 o         1 MOL     -0.841503
     15 H4         -9.4210   -3.7670   -0.6170 hn        1 MOL      0.336125
     16 H5        -11.0590   -3.3520   -3.0460 h1        1 MOL      0.004230
     17 H6         -9.4720   -1.3170   -3.2610 hc        1 MOL      0.093729
     18 H7         -8.6200   -2.8290   -3.3540 hc        1 MOL      0.093729
     19 N2        -11.3160   -2.0370   -0.1500 n         1 MOL     -0.676095
     20 C7        -12.2300   -1.2230    0.7510 c3        1 MOL      0.437560
     21 C8        -11.5310    0.0300    1.3500 c         1 MOL      0.095209
     22 O5        -12.1540    0.8140    2.0940 o         1 MOL     -0.515739
     23 C9        -12.6900   -2.2060    1.8470 c3        1 MOL     -0.301479
     24 H8        -10.5490   -2.5080    0.3080 hn        1 MOL      0.368783
     25 H9        -13.1380   -0.8780    0.2420 h1        1 MOL      0.028051
     26 H10       -13.4050   -1.6860    2.4850 hc        1 MOL      0.082170
     27 H11       -13.2340   -3.0450    1.4340 hc        1 MOL      0.082170
     28 H12       -11.8120   -2.5360    2.3990 hc        1 MOL      0.082170
     29 N3        -10.2420    0.1960    1.1490 n         1 MOL      0.304259
     30 C10        -9.4590    1.3950    1.5790 c3        1 MOL     -0.327547
     31 C11        -8.4360    1.8340    0.5630 c         1 MOL      0.530623
     32 O6         -8.0500    1.0880   -0.3960 o         1 MOL     -0.591668
     33 C12        -8.7250    1.0660    2.9620 c3        1 MOL     -0.087883
     34 C13        -8.1570   -0.3330    2.8930 c         1 MOL      0.642506
     35 O7         -7.1250   -0.5490    2.2020 o         1 MOL     -0.680296
     36 O8         -8.7600   -1.2210    3.5230 o         1 MOL     -0.680296
     37 H13        -9.8100   -0.4540    0.5080 hn        1 MOL      0.034073
     38 H14       -10.0500    2.2930    1.7250 h1        1 MOL      0.113895
     39 H15        -9.4650    1.0040    3.7570 hc        1 MOL      0.044214
     40 H16        -7.9730    1.7670    3.3270 hc        1 MOL      0.044214
     41 N4         -7.8420    2.9830    0.7310 n         1 MOL     -0.330773
     42 C14        -6.7550    3.6600   -0.0490 c3        1 MOL     -0.266944
     43 C15        -5.4400    2.9190   -0.2350 c         1 MOL      0.782901
     44 O9         -5.2650    1.8780    0.4160 o         1 MOL     -0.678820
     45 H17        -8.1150    3.5110    1.5440 hn        1 MOL      0.288668
     46 H18        -6.4750    4.6170    0.3990 h1        1 MOL      0.131091
     47 H19        -7.1210    3.8440   -1.0480 h1        1 MOL      0.131091
     48 N5         -4.5650    3.3800   -1.0850 n         1 MOL     -0.599682
     49 C16        -3.1390    2.9570   -1.2270 c3        1 MOL      0.265436
     50 C17        -2.1890    4.1640   -1.2350 c         1 MOL      0.553575
     51 O10        -2.6440    5.3450   -1.3130 o         1 MOL     -0.531670
     52 C18        -2.8470    2.1560   -2.5230 c3        1 MOL     -0.350349
     53 C19        -3.3820    0.7350   -2.5760 c         1 MOL      0.667740
     54 N6         -3.3160    0.1520   -3.7530 n         1 MOL     -0.758405
     55 O11        -3.9270    0.1380   -1.6710 o         1 MOL     -0.534009
     56 H20        -4.8610    4.2680   -1.4580 hn        1 MOL      0.284020
     57 H21        -2.8040    2.3300   -0.3980 h1        1 MOL      0.068965
     58 H22        -1.7610    2.0800   -2.6440 hc        1 MOL      0.109188
     59 H23        -3.3020    2.7240   -3.3460 hc        1 MOL      0.109188
     60 H24        -3.0820    0.7130   -4.5580 hn        1 MOL      0.370547
     61 H25        -3.8220   -0.7240   -3.8050 hn        1 MOL      0.370547
     62 N7         -0.9260    3.8270   -0.9910 n         1 MOL     -0.617402
     63 C20         0.1190    4.7720   -0.6790 c3        1 MOL      0.082850
     64 C21         0.0040    5.3350    0.7440 c         1 MOL      0.499030
     65 O12        -1.1210    5.3050    1.2980 o         1 MOL     -0.512484
     66 H26        -0.6650    2.8590   -0.8810 hn        1 MOL      0.379265
     67 H27         0.0140    5.6150   -1.3580 h1        1 MOL      0.098302
     68 H28         1.1160    4.3720   -0.8680 h1        1 MOL      0.098302
     69 N8          1.0770    5.8690    1.3030 n         1 MOL     -0.362616
     70 C22         2.1120    6.6000    0.4920 c3        1 MOL     -0.120636
     71 C23         3.1740    5.7590   -0.1480 c         1 MOL      0.296785
     72 O13         3.6550    6.1180   -1.2420 o         1 MOL     -0.514051
     73 C24         2.6820    7.7350    1.3580 c3        1 MOL      0.641379
     74 C25         1.7790    8.6650    2.1560 c3        1 MOL     -0.423434
     75 O14         3.4220    7.1250    2.4340 oh        1 MOL     -0.706501
     76 H29         1.0120    6.1270    2.2770 hn        1 MOL      0.216931
     77 H30         1.5560    7.1890   -0.2340 h1        1 MOL      0.062361
     78 H31         3.3240    8.2900    0.6720 h1        1 MOL     -0.010716
     79 H32         2.8230    6.5830    2.9500 ho        1 MOL      0.422597
     80 H33         1.0710    9.0180    1.4130 hc        1 MOL      0.092771
     81 H34         1.1800    8.0300    2.8080 hc        1 MOL      0.092771
     82 H35         2.3490    9.4330    2.6870 hc        1 MOL      0.092771
     83 N9          3.5160    4.6360    0.4070 n         1 MOL     -0.107168
     84 C26         4.4710    3.6700   -0.1270 c3        1 MOL      0.126301
     85 C27         3.7380    2.2890   -0.1550 c         1 MOL      0.454792
     86 O15         2.7740    2.1190    0.5560 o         1 MOL     -0.554042
     87 C28         5.7710    3.6910    0.5990 c3        1 MOL      0.191210
     88 C29         5.4650    3.3130    2.0390 c3        1 MOL      0.000708
     89 C30         6.4060    5.0770    0.3910 c3        1 MOL     -0.354402
     90 C31         6.6860    2.9240    2.8390 c3        1 MOL     -0.046200
     91 H36         3.2370    4.4810    1.3580 hn        1 MOL      0.084517
     92 H37         4.6430    3.9800   -1.1560 h1        1 MOL      0.065487
     93 H38         6.5570    3.0430    0.2090 hc        1 MOL     -0.000822
     94 H39         4.8350    2.4280    2.0910 hc        1 MOL      0.034103
     95 H40         4.9000    4.1190    2.5190 hc        1 MOL      0.034103
     96 H41         5.8840    5.8960    0.8840 hc        1 MOL      0.072927
     97 H42         7.3690    5.1260    0.9140 hc        1 MOL      0.072927
     98 H43         6.4090    5.2540   -0.6840 hc        1 MOL      0.072927
     99 H44         7.3180    3.7990    3.0050 hc        1 MOL     -0.003538
    100 H45         6.3650    2.6860    3.8560 hc        1 MOL     -0.003538
    101 H46         7.2080    2.0670    2.4190 hc        1 MOL     -0.003538
    102 N10         4.2590    1.2320   -0.7810 n         1 MOL     -0.504205
    103 C32         5.3030    1.1270   -1.7820 c3        1 MOL     -0.090969
    104 C33         6.3640    0.0910   -1.3600 c         1 MOL      0.717008
    105 O16         6.0040   -1.0280   -0.9800 o         1 MOL     -0.538757
    106 C34         4.6100    0.8760   -3.2270 c3        1 MOL     -0.092874
    107 C35         3.2470    1.5200   -3.5790 c         1 MOL      0.744922
    108 O17         3.2050    2.7620   -3.6510 o         1 MOL     -0.723232
    109 O18         2.3110    0.8590   -4.1520 o         1 MOL     -0.723232
    110 H47         3.8590    0.3300   -0.5140 hn        1 MOL      0.353713
    111 H48         5.7600    2.1150   -1.7380 h1        1 MOL      0.051635
    112 H49         4.3440   -0.1710   -3.3830 hc        1 MOL      0.006461
    113 H50         5.2820    1.1560   -4.0340 hc        1 MOL      0.006461
    114 N11         7.6600    0.3890   -1.4660 n         1 MOL     -0.787000
    115 C36         8.7790   -0.5130   -1.1170 c3        1 MOL      0.561929
    116 C37         9.0480   -0.6530    0.4570 c         1 MOL      0.240455
    117 O19         8.7360    0.2460    1.2520 o         1 MOL     -0.504029
    118 C38        10.0340    0.0360   -1.8840 c3        1 MOL     -0.222080
    119 C39        11.2320   -0.9070   -1.9360 ca        1 MOL      0.081416
    120 C40        11.1820   -2.0660   -2.7520 ca        1 MOL     -0.153014
    121 C41        12.4680   -0.6850   -1.2360 ca        1 MOL     -0.153014
    122 C42        12.2650   -2.8890   -2.8590 ca        1 MOL     -0.110338
    123 C43        13.5480   -1.5930   -1.2890 ca        1 MOL     -0.110338
    124 C44        13.3840   -2.7300   -2.0950 ca        1 MOL     -0.114908
    125 H51         7.9080    1.3530   -1.6100 hn        1 MOL      0.340603
    126 H52         8.5620   -1.4760   -1.5780 h1        1 MOL      0.011494
    127 H53        10.4130    0.9240   -1.3700 hc        1 MOL      0.067215
    128 H54         9.7120    0.3170   -2.8780 hc        1 MOL      0.067215
    129 H55        10.2650   -2.2980   -3.2690 ha        1 MOL      0.114956
    130 H56        12.6470    0.2000   -0.6470 ha        1 MOL      0.114956
    131 H57        12.1010   -3.8270   -3.3680 ha        1 MOL      0.108414
    132 H58        14.5120   -1.3940   -0.8330 ha        1 MOL      0.108414
    133 H59        14.2190   -3.4120   -2.1880 ha        1 MOL      0.093050
    134 N12         9.4240   -1.8260    0.9890 n         1 MOL     -0.095734
    135 C45         9.5240   -3.1420    0.3210 c3        1 MOL     -0.048351
    136 C46         8.1650   -3.8590    0.0820 c         1 MOL      0.504831
    137 O20         7.9520   -4.3890   -0.9960 o         1 MOL     -0.563527
    138 C47        10.3290   -3.9250    1.3930 c3        1 MOL     -0.020532
    139 C48        10.0580   -3.3140    2.7380 c3        1 MOL     -0.113542
    140 C49         9.6910   -1.9150    2.4330 c3        1 MOL     -0.051274
    141 H60        10.0870   -3.0900   -0.6060 h1        1 MOL      0.066692
    142 H61        10.2420   -5.0080    1.3870 hc        1 MOL      0.029363
    143 H62        11.3640   -3.6610    1.1730 hc        1 MOL      0.029363
    144 H63         9.1710   -3.7860    3.1540 hc        1 MOL      0.047060
    145 H64        10.9890   -3.2930    3.3090 hc        1 MOL      0.047060
    146 H65         8.8000   -1.6850    3.0320 h1        1 MOL      0.081320
    147 H66        10.5070   -1.2460    2.7240 h1        1 MOL      0.081320
    148 N13         7.2610   -3.8250    1.0440 n         1 MOL     -0.392798
    149 C50         5.9200   -4.4150    1.0550 c3        1 MOL      0.178930
    150 C51         6.0730   -5.9090    1.2620 c         1 MOL      0.515198
    151 O21         6.5280   -6.3190    2.2960 o         1 MOL     -0.569682
    152 C52         5.1540   -3.7350    2.2330 c3        1 MOL     -0.133333
    153 C53         3.7060   -4.2320    2.3850 c3        1 MOL     -0.150226
    154 C54         3.0980   -3.7250    3.6900 c         1 MOL      0.661583
    155 O22         2.4480   -2.6250    3.7100 o         1 MOL     -0.720068
    156 O23         3.2080   -4.3670    4.7960 o         1 MOL     -0.720068
    157 H67         7.4370   -3.3090    1.8930 hn        1 MOL      0.270539
    158 H68         5.4280   -4.1470    0.1160 h1        1 MOL      0.066476
    159 H69         5.1440   -2.6790    1.9640 hc        1 MOL      0.072221
    160 H70         5.6100   -3.9630    3.1930 hc        1 MOL      0.072221
    161 H71         3.7110   -5.3160    2.2440 hc        1 MOL     -0.001933
    162 H72         3.0980   -3.8820    1.5570 hc        1 MOL     -0.001933
    163 N14         5.6390   -6.8270    0.3680 n         1 MOL     -0.352971
    164 C55         5.2620   -6.6770   -1.0570 c3        1 MOL     -0.143583
    165 H73         4.8100   -7.6030   -1.4120 h1        1 MOL      0.077584
    166 H74         4.5480   -5.8610   -1.1610 h1        1 MOL      0.077584
    167 H75         6.1530   -6.4580   -1.6480 h1        1 MOL      0.077584
    168 H76         5.7420   -7.7810    0.6820 hn        1 MOL      0.258474
    169 Ca1        -5.8560   -0.7610    0.0740 Ca        1 MOL      1.748433
    170 O24        -5.9530   -3.3110    1.4920 oh        1 MOL     -0.838137
    171 H77        -5.9450   -3.0930    2.4180 ho        1 MOL      0.415032
    172 H78        -6.2000   -4.2370    1.4700 ho        1 MOL      0.415032
    173 O25        -3.6030   -0.9360    1.4510 oh        1 MOL     -0.838137
    174 H79        -3.5140   -1.0020    2.3980 ho        1 MOL      0.415032
    175 H80        -2.8030   -1.3390    1.1080 ho        1 MOL      0.415032
    176 O26        -4.6540   -2.8510   -1.2340 oh        1 MOL     -0.838137
    177 H81        -4.0590   -3.3950   -0.7220 ho        1 MOL      0.415032
    178 H82        -4.7670   -3.3290   -2.0540 ho        1 MOL      0.415032
@<TRIPOS>BOND
     1    1    2 1   
     2    1    4 1   
     3    1    5 1   
     4    1    6 1   
     5    2    3 2   
     6    2    7 1   
     7    7    8 1   
     8    7   15 1   
     9    8    9 1   
    10    8   11 1   
    11    8   16 1   
    12    9   10 2   
    13    9   19 1   
    14   11   12 1   
    15   11   17 1   
    16   11   18 1   
    17   12   13 1   
    18   12   14 1   
    19   19   20 1   
    20   19   24 1   
    21   20   21 1   
    22   20   23 1   
    23   20   25 1   
    24   21   22 2   
    25   21   29 1   
    26   23   26 1   
    27   23   27 1   
    28   23   28 1   
    29   29   30 1   
    30   29   37 1   
    31   30   31 1   
    32   30   33 1   
    33   30   38 1   
    34   31   32 2   
    35   31   41 1   
    36   33   34 1   
    37   33   39 1   
    38   33   40 1   
    39   34   35 1   
    40   34   36 1   
    41   41   42 1   
    42   41   45 1   
    43   42   43 1   
    44   42   46 1   
    45   42   47 1   
    46   43   44 2   
    47   43   48 1   
    48   48   49 1   
    49   48   56 1   
    50   49   50 1   
    51   49   52 1   
    52   49   57 1   
    53   50   51 2   
    54   50   62 1   
    55   52   53 1   
    56   52   58 1   
    57   52   59 1   
    58   53   54 1   
    59   53   55 2   
    60   54   60 1   
    61   54   61 1   
    62   62   63 1   
    63   62   66 1   
    64   63   64 1   
    65   63   67 1   
    66   63   68 1   
    67   64   65 2   
    68   64   69 1   
    69   69   70 1   
    70   69   76 1   
    71   70   71 1   
    72   70   73 1   
    73   70   77 1   
    74   71   72 2   
    75   71   83 1   
    76   73   74 1   
    77   73   75 1   
    78   73   78 1   
    79   74   80 1   
    80   74   81 1   
    81   74   82 1   
    82   75   79 1   
    83   83   84 1   
    84   83   91 1   
    85   84   85 1   
    86   84   87 1   
    87   84   92 1   
    88   85   86 2   
    89   85  102 1   
    90   87   88 1   
    91   87   89 1   
    92   87   93 1   
    93   88   90 1   
    94   88   94 1   
    95   88   95 1   
    96   89   96 1   
    97   89   97 1   
    98   89   98 1   
    99   90   99 1   
   100   90  100 1   
   101   90  101 1   
   102  102  103 1   
   103  102  110 1   
   104  103  104 1   
   105  103  106 1   
   106  103  111 1   
   107  104  105 2   
   108  104  114 1   
   109  106  107 1   
   110  106  112 1   
   111  106  113 1   
   112  107  108 1   
   113  107  109 1   
   114  114  115 1   
   115  114  125 1   
   116  115  116 1   
   117  115  118 1   
   118  115  126 1   
   119  116  117 2   
   120  116  134 1   
   121  118  119 1   
   122  118  127 1   
   123  118  128 1   
   124  119  120 ar  
   125  119  121 ar  
   126  120  122 ar  
   127  120  129 1   
   128  121  123 ar  
   129  121  130 1   
   130  122  124 ar  
   131  122  131 1   
   132  123  124 ar  
   133  123  132 1   
   134  124  133 1   
   135  134  135 1   
   136  134  140 1   
   137  135  136 1   
   138  135  138 1   
   139  135  141 1   
   140  136  137 2   
   141  136  148 1   
   142  138  139 1   
   143  138  142 1   
   144  138  143 1   
   145  139  140 1   
   146  139  144 1   
   147  139  145 1   
   148  140  146 1   
   149  140  147 1   
   150  148  149 1   
   151  148  157 1   
   152  149  150 1   
   153  149  152 1   
   154  149  158 1   
   155  150  151 2   
   156  150  163 1   
   157  152  153 1   
   158  152  159 1   
   159  152  160 1   
   160  153  154 1   
   161  153  161 1   
   162  153  162 1   
   163  154  155 1   
   164  154  156 1   
   165  163  164 1   
   166  163  168 1   
   167  164  165 1   
   168  164  166 1   
   169  164  167 1   
   170  170  171 1   
   171  170  172 1   
   172  173  174 1   
   173  173  175 1   
   174  176  177 1   
   175  176  178 1   
@<TRIPOS>SUBSTRUCTURE
     1 MOL         1 TEMP              0 ****  ****    0 ROOT
