@<TRIPOS>MOLECULE
MOL
  198   191     1     0     0
SMALL
resp


@<TRIPOS>ATOM
      1 C1         -2.4380    0.6890    4.3790 c3        1 MOL     -0.416485
      2 C2         -3.5100   -0.3220    3.9000 c         1 MOL      0.707193
      3 O1         -3.4240   -1.5280    4.0240 o         1 MOL     -0.556580
      4 H1         -2.8150    1.7040    4.2540 hc        1 MOL      0.113142
      5 H2         -2.2150    0.5110    5.4310 hc        1 MOL      0.113142
      6 H3         -1.5310    0.5650    3.7880 hc        1 MOL      0.113142
      7 N1         -4.6840    0.2880    3.5430 n         1 MOL     -0.541023
      8 C3         -5.9630   -0.4400    3.2170 c3        1 MOL      0.140250
      9 C4         -5.8700   -0.9020    1.7370 c         1 MOL      0.466556
     10 O2         -4.9180   -0.6680    1.0310 o         1 MOL     -0.440346
     11 C5         -7.2580    0.4580    3.4400 c3        1 MOL     -0.390907
     12 C6         -7.3920    1.7480    2.6010 c         1 MOL      0.889516
     13 O3         -6.8350    2.7820    2.9000 o         1 MOL     -0.753835
     14 O4         -8.2310    1.8400    1.7640 o         1 MOL     -0.753835
     15 H4         -4.6370    1.2870    3.3820 hn        1 MOL      0.287854
     16 H5         -6.0790   -1.3010    3.8680 h1        1 MOL      0.069465
     17 H6         -7.1220    0.7830    4.4750 hc        1 MOL      0.085984
     18 H7         -8.1970   -0.0940    3.4010 hc        1 MOL      0.085984
     19 N2         -6.9120   -1.6450    1.3220 n         1 MOL     -0.613887
     20 C7         -7.0040   -2.3930   -0.0090 c3        1 MOL     -0.031606
     21 C8         -7.0790   -1.4380   -1.2490 c         1 MOL      0.433153
     22 O5         -7.2380   -1.8860   -2.3950 o         1 MOL     -0.544430
     23 C9         -8.2030   -3.3790    0.0570 c3        1 MOL      0.186668
     24 C10        -7.8920   -4.6560    0.8660 c3        1 MOL      0.153536
     25 C11        -8.9850   -5.7020    0.8120 c3        1 MOL     -0.195929
     26 C12       -10.4340   -5.1870    0.9760 c3        1 MOL      0.025905
     27 N3        -11.3810   -6.2740    0.7480 n4        1 MOL     -0.225118
     28 H8         -7.6710   -1.7100    1.9930 hn        1 MOL      0.340236
     29 H9         -6.0880   -2.9740   -0.1520 h1        1 MOL      0.128745
     30 H10        -8.5160   -3.7340   -0.9200 hc        1 MOL     -0.025939
     31 H11        -9.0200   -2.8340    0.5190 hc        1 MOL     -0.025939
     32 H12        -7.8380   -4.2780    1.8870 hc        1 MOL     -0.035741
     33 H13        -6.9950   -5.1890    0.5500 hc        1 MOL     -0.035741
     34 H14        -8.7290   -6.4100    1.6000 hc        1 MOL      0.075345
     35 H15        -8.7510   -6.0960   -0.1830 hc        1 MOL      0.075345
     36 H16       -10.6900   -4.4790    0.1880 hx        1 MOL      0.088934
     37 H17       -10.5260   -4.8380    2.0070 hx        1 MOL      0.088934
     38 H18       -11.0690   -6.8550   -0.0170 hn        1 MOL      0.229087
     39 H19       -11.4600   -6.8840    1.5500 hn        1 MOL      0.229087
     40 H20       -12.2750   -5.8890    0.5000 hn        1 MOL      0.229087
     41 N4         -7.1190   -0.0860   -1.0930 n         1 MOL     -0.159378
     42 C13        -6.9190    0.8280   -2.2280 c3        1 MOL      0.106735
     43 C14        -6.1870    2.0480   -1.8300 c         1 MOL      0.148503
     44 O6         -6.2210    2.4340   -0.6540 o         1 MOL     -0.429513
     45 C15        -8.3290    1.2040   -2.7480 c3        1 MOL     -0.337312
     46 C16        -9.2780    1.6740   -1.6920 c         1 MOL      0.626381
     47 O7        -10.3710    1.1010   -1.4040 o         1 MOL     -0.650924
     48 O8         -8.9990    2.8470   -1.2430 o         1 MOL     -0.650924
     49 H21        -6.8570    0.3130   -0.1990 hn        1 MOL      0.206016
     50 H22        -6.3500    0.3920   -3.0450 h1        1 MOL      0.094127
     51 H23        -8.7780    0.3100   -3.1770 hc        1 MOL      0.109016
     52 H24        -8.3030    1.9510   -3.5470 hc        1 MOL      0.109016
     53 N5         -5.6360    2.8290   -2.7300 n         1 MOL     -0.387604
     54 C17        -5.4960    2.5270   -4.1250 c3        1 MOL     -0.047702
     55 C18        -4.1120    1.9800   -4.5360 c         1 MOL      0.595822
     56 O9         -3.7840    1.9620   -5.7470 o         1 MOL     -0.575547
     57 H25        -5.2680    3.6810   -2.3270 hn        1 MOL      0.318097
     58 H26        -5.6930    3.4480   -4.6690 h1        1 MOL      0.089668
     59 H27        -6.3320    1.9370   -4.5080 h1        1 MOL      0.089668
     60 N6         -3.3580    1.4880   -3.5980 n         1 MOL     -0.576668
     61 C19        -2.0860    0.8250   -3.7870 c3        1 MOL      0.261030
     62 C20        -2.1700   -0.6590   -3.3040 c         1 MOL      0.393699
     63 O10        -3.0760   -1.0140   -2.6160 o         1 MOL     -0.460842
     64 C21        -0.9690    1.6400   -3.1260 c3        1 MOL     -0.117200
     65 C22        -1.1720    3.1750   -3.0490 c         1 MOL      0.647871
     66 O11        -1.1860    3.8480   -1.9800 o         1 MOL     -0.633215
     67 O12        -1.1840    3.8260   -4.0860 o         1 MOL     -0.633215
     68 H28        -3.6920    1.3590   -2.6550 hn        1 MOL      0.391573
     69 H29        -1.7640    0.8210   -4.8250 h1        1 MOL      0.012742
     70 H30        -0.0190    1.5310   -3.6470 hc        1 MOL     -0.001813
     71 H31        -0.8690    1.2230   -2.1180 hc        1 MOL     -0.001813
     72 N7         -1.1880   -1.5280   -3.6180 n         1 MOL     -0.324243
     73 C23        -1.3510   -2.9490   -3.4080 c3        1 MOL     -0.024803
     74 C24        -0.6230   -3.1920   -2.1060 c         1 MOL      0.514935
     75 O13         0.5980   -3.1610   -2.1280 o         1 MOL     -0.538462
     76 H32        -0.4480   -1.2010   -4.2180 hn        1 MOL      0.257886
     77 H33        -0.9760   -3.5470   -4.2410 h1        1 MOL      0.060620
     78 H34        -2.3680   -3.2980   -3.2750 h1        1 MOL      0.060620
     79 N8         -1.3320   -3.3670   -0.9580 n         1 MOL     -0.396894
     80 C25        -0.7050   -3.7920    0.3160 c3        1 MOL     -0.173979
     81 C26        -0.0980   -2.6160    1.0610 c         1 MOL      0.542790
     82 O14        -0.5800   -1.4880    0.9600 o         1 MOL     -0.464341
     83 C27        -1.6380   -4.6190    1.1910 c3        1 MOL      0.370353
     84 C28        -2.6530   -3.7280    1.9050 c3        1 MOL     -0.291124
     85 O15        -2.2950   -5.5720    0.4180 oh        1 MOL     -0.622742
     86 H35        -2.3020   -3.6110   -1.1110 hn        1 MOL      0.307295
     87 H36         0.1680   -4.4450    0.2040 h1        1 MOL      0.086042
     88 H37        -0.9380   -5.1440    1.8480 h1        1 MOL     -0.025812
     89 H38        -1.8100   -6.4030    0.4170 ho        1 MOL      0.399878
     90 H39        -3.1250   -3.1890    1.0830 hc        1 MOL      0.094421
     91 H40        -3.2630   -4.4470    2.4540 hc        1 MOL      0.094421
     92 H41        -2.2220   -3.0450    2.6410 hc        1 MOL      0.094421
     93 N9          0.9240   -2.8930    1.8270 n         1 MOL     -0.562087
     94 C29         1.7590   -1.8710    2.5840 c3        1 MOL     -0.037344
     95 C30         2.8330   -1.3120    1.6550 c         1 MOL      0.380311
     96 O16         3.1860   -0.1350    1.7450 o         1 MOL     -0.502573
     97 C31         2.3930   -2.6370    3.8100 c3        1 MOL      0.553007
     98 C32         1.4290   -3.5650    4.4450 c3        1 MOL     -0.010714
     99 C33         3.0320   -1.6440    4.7120 c3        1 MOL     -0.332601
    100 C34         1.8980   -4.0980    5.7520 c3        1 MOL     -0.169946
    101 H42         1.3010   -3.8290    1.8610 hn        1 MOL      0.311068
    102 H43         1.1930   -1.0020    2.9250 h1        1 MOL      0.113751
    103 H44         3.2000   -3.2700    3.4320 hc        1 MOL     -0.107274
    104 H45         1.3310   -4.4150    3.7720 hc        1 MOL     -0.010225
    105 H46         0.5150   -2.9870    4.5980 hc        1 MOL     -0.010225
    106 H47         3.8200   -1.1090    4.1880 hc        1 MOL      0.070022
    107 H48         2.1780   -1.0470    5.0480 hc        1 MOL      0.070022
    108 H49         3.5540   -2.1190    5.5410 hc        1 MOL      0.070022
    109 H50         2.1380   -3.3340    6.4920 hc        1 MOL      0.032706
    110 H51         1.1130   -4.7580    6.1390 hc        1 MOL      0.032706
    111 H52         2.8440   -4.6100    5.5790 hc        1 MOL      0.032706
    112 N10         3.3950   -2.0560    0.6960 n         1 MOL     -0.413083
    113 C35         4.1700   -1.5190   -0.3710 c3        1 MOL      0.158508
    114 C36         5.2150   -2.4810   -0.8050 c         1 MOL      0.568097
    115 O17         4.9880   -3.6900   -0.7170 o         1 MOL     -0.531349
    116 C37         3.2470   -1.2680   -1.6230 c3        1 MOL      0.297938
    117 C38         1.9250   -0.5040   -1.4300 c3        1 MOL     -0.333123
    118 O18         4.0790   -0.4840   -2.5120 oh        1 MOL     -0.703852
    119 H53         3.0700   -2.9980    0.5770 hn        1 MOL      0.212682
    120 H54         4.6850   -0.6000   -0.0740 h1        1 MOL      0.076838
    121 H55         3.0070   -2.2450   -2.0400 h1        1 MOL      0.001382
    122 H56         3.4700   -0.1240   -3.1550 ho        1 MOL      0.422028
    123 H57         1.4050   -1.1590   -0.7240 hc        1 MOL      0.121723
    124 H58         2.1290    0.4330   -0.9120 hc        1 MOL      0.121723
    125 H59         1.4640   -0.3420   -2.4040 hc        1 MOL      0.121723
    126 N11         6.4790   -2.1220   -1.1490 n         1 MOL     -0.575519
    127 C39         7.5710   -3.0480   -1.0370 c3        1 MOL     -0.059058
    128 C40         8.8420   -2.3590   -0.4160 c         1 MOL      0.717646
    129 O19         9.6030   -2.9350    0.2590 o         1 MOL     -0.571675
    130 C41         7.8030   -3.8050   -2.3880 c3        1 MOL      0.412032
    131 C42         8.6830   -5.0520   -2.1820 c3        1 MOL     -0.331763
    132 O20         8.3120   -2.9760   -3.3510 oh        1 MOL     -0.634476
    133 H60         6.6190   -1.1340   -1.2990 hn        1 MOL      0.296466
    134 H61         7.2710   -3.8480   -0.3570 h1        1 MOL      0.091774
    135 H62         6.8000   -4.1570   -2.6370 h1        1 MOL      0.012202
    136 H63         7.6270   -2.3270   -3.5280 ho        1 MOL      0.374883
    137 H64         9.7170   -4.8130   -1.9370 hc        1 MOL      0.089937
    138 H65         8.3380   -5.7190   -1.3970 hc        1 MOL      0.089937
    139 H66         8.5670   -5.6580   -3.0720 hc        1 MOL      0.089937
    140 N12         9.0330   -1.0740   -0.7080 n         1 MOL     -0.600098
    141 C43        10.0780   -0.2170   -0.1170 c3        1 MOL      0.164939
    142 C44         9.7020    1.2410    0.0040 c         1 MOL      0.421250
    143 O21         8.9190    1.8330   -0.7660 o         1 MOL     -0.490416
    144 C45        11.3650   -0.5410   -0.8410 c3        1 MOL     -0.657867
    145 C46        11.3170    0.1800   -2.2100 c3        1 MOL      0.279908
    146 C47        12.5500    0.0010   -3.0550 c3        1 MOL     -0.171207
    147 C48        12.5000    1.0370   -4.2160 c3        1 MOL     -0.103371
    148 N13        11.2800    1.0360   -4.9950 n4        1 MOL     -0.231323
    149 H67         8.5180   -0.7160   -1.4950 hn        1 MOL      0.293236
    150 H68        10.2680   -0.5600    0.8930 h1        1 MOL      0.123640
    151 H69        11.3380   -1.6290   -0.8960 hc        1 MOL      0.211377
    152 H70        12.1920   -0.2420   -0.2050 hc        1 MOL      0.211377
    153 H71        11.1870    1.2520   -2.0250 hc        1 MOL      0.007673
    154 H72        10.4070   -0.0690   -2.7540 hc        1 MOL      0.007673
    155 H73        12.4900   -1.0210   -3.4320 hc        1 MOL      0.081869
    156 H74        13.4610    0.1850   -2.4750 hc        1 MOL      0.081869
    157 H75        13.3760    0.8080   -4.8280 hx        1 MOL      0.117116
    158 H76        12.7440    1.9920   -3.7530 hx        1 MOL      0.117116
    159 H77        11.2900    0.0870   -5.3570 hn        1 MOL      0.263258
    160 H78        10.4300    1.2390   -4.4780 hn        1 MOL      0.263258
    161 H79        11.3360    1.6060   -5.8340 hn        1 MOL      0.263258
    162 N14        10.1860    1.8290    1.0940 n         1 MOL     -0.447104
    163 C49         9.8020    3.2080    1.4690 c3        1 MOL      0.305740
    164 C50         8.3520    3.3050    1.8400 c         1 MOL      0.354850
    165 O22         7.5780    4.0200    1.2460 o         1 MOL     -0.521775
    166 C51        10.6740    3.6440    2.6140 c3        1 MOL     -0.106701
    167 C52        11.9500    4.3640    2.0880 c3        1 MOL     -0.318887
    168 C53        12.9770    4.5910    3.1920 c         1 MOL      0.733890
    169 O23        12.9670    5.7430    3.7110 o         1 MOL     -0.668544
    170 O24        13.7650    3.7340    3.6410 o         1 MOL     -0.668544
    171 H80        10.8380    1.3430    1.6860 hn        1 MOL      0.270204
    172 H81         9.8860    3.9330    0.6640 h1        1 MOL      0.022919
    173 H82        10.9590    2.8820    3.3300 hc        1 MOL      0.080840
    174 H83        10.0580    4.3900    3.1220 hc        1 MOL      0.080840
    175 H84        11.6770    5.2710    1.5540 hc        1 MOL      0.062657
    176 H85        12.4890    3.7710    1.3400 hc        1 MOL      0.062657
    177 N15         7.7530    2.4550    2.6780 n         1 MOL     -0.314498
    178 C54         8.3660    1.6560    3.7210 c3        1 MOL      0.009477
    179 H86         8.6070    0.6680    3.3280 h1        1 MOL      0.026469
    180 H87         9.2800    2.1420    4.0620 h1        1 MOL      0.026469
    181 H88         7.6740    1.5550    4.5570 h1        1 MOL      0.026469
    182 H89         6.7530    2.5900    2.6490 hn        1 MOL      0.287034
    183 Ca1        -7.7380    4.0990    0.7160 Ca        1 MOL      1.648732
    184 O25        -7.4820    5.9810    2.6850 oh        1 MOL     -0.796301
    185 H90        -8.0570    6.6670    3.0220 ho        1 MOL      0.400036
    186 H91        -6.6640    6.0830    3.1660 ho        1 MOL      0.400036
    187 O26        -5.0980    4.7650    0.8110 oh        1 MOL     -0.796301
    188 H92        -4.8560    5.6610    0.6190 ho        1 MOL      0.400036
    189 H93        -4.4100    4.2320    0.4080 ho        1 MOL      0.400036
    190 O27        -6.9520    5.9830   -1.2140 oh        1 MOL     -0.796301
    191 H94        -7.6950    6.4860   -1.5320 ho        1 MOL      0.400036
    192 H95        -6.2030    6.5750   -1.3070 ho        1 MOL      0.400036
    193 O28        -9.6180    5.6980   -0.2090 oh        1 MOL     -0.796301
    194 H96       -10.1360    5.4020   -0.9650 ho        1 MOL      0.400036
    195 H97        -9.7140    6.6450   -0.2090 ho        1 MOL      0.400036
    196 O29        -9.9660    4.0110    2.2660 oh        1 MOL     -0.796301
    197 H98        -9.8630    4.0140    3.2130 ho        1 MOL      0.400036
    198 H99       -10.9120    4.1170    2.1250 ho        1 MOL      0.400036
@<TRIPOS>BOND
     1    1    2 1   
     2    1    4 1   
     3    1    5 1   
     4    1    6 1   
     5    2    3 2   
     6    2    7 1   
     7    7    8 1   
     8    7   15 1   
     9    8    9 1   
    10    8   11 1   
    11    8   16 1   
    12    9   10 2   
    13    9   19 1   
    14   11   12 1   
    15   11   17 1   
    16   11   18 1   
    17   12   13 1   
    18   12   14 1   
    19   19   20 1   
    20   19   28 1   
    21   20   21 1   
    22   20   23 1   
    23   20   29 1   
    24   21   22 2   
    25   21   41 1   
    26   23   24 1   
    27   23   30 1   
    28   23   31 1   
    29   24   25 1   
    30   24   32 1   
    31   24   33 1   
    32   25   26 1   
    33   25   34 1   
    34   25   35 1   
    35   26   27 1   
    36   26   36 1   
    37   26   37 1   
    38   27   38 1   
    39   27   39 1   
    40   27   40 1   
    41   41   42 1   
    42   41   49 1   
    43   42   43 1   
    44   42   45 1   
    45   42   50 1   
    46   43   44 2   
    47   43   53 1   
    48   45   46 1   
    49   45   51 1   
    50   45   52 1   
    51   46   47 1   
    52   46   48 1   
    53   53   54 1   
    54   53   57 1   
    55   54   55 1   
    56   54   58 1   
    57   54   59 1   
    58   55   56 2   
    59   55   60 1   
    60   60   61 1   
    61   60   68 1   
    62   61   62 1   
    63   61   64 1   
    64   61   69 1   
    65   62   63 2   
    66   62   72 1   
    67   64   65 1   
    68   64   70 1   
    69   64   71 1   
    70   65   66 1   
    71   65   67 1   
    72   72   73 1   
    73   72   76 1   
    74   73   74 1   
    75   73   77 1   
    76   73   78 1   
    77   74   75 2   
    78   74   79 1   
    79   79   80 1   
    80   79   86 1   
    81   80   81 1   
    82   80   83 1   
    83   80   87 1   
    84   81   82 2   
    85   81   93 1   
    86   83   84 1   
    87   83   85 1   
    88   83   88 1   
    89   84   90 1   
    90   84   91 1   
    91   84   92 1   
    92   85   89 1   
    93   93   94 1   
    94   93  101 1   
    95   94   95 1   
    96   94   97 1   
    97   94  102 1   
    98   95   96 2   
    99   95  112 1   
   100   97   98 1   
   101   97   99 1   
   102   97  103 1   
   103   98  100 1   
   104   98  104 1   
   105   98  105 1   
   106   99  106 1   
   107   99  107 1   
   108   99  108 1   
   109  100  109 1   
   110  100  110 1   
   111  100  111 1   
   112  112  113 1   
   113  112  119 1   
   114  113  114 1   
   115  113  116 1   
   116  113  120 1   
   117  114  115 2   
   118  114  126 1   
   119  116  117 1   
   120  116  118 1   
   121  116  121 1   
   122  117  123 1   
   123  117  124 1   
   124  117  125 1   
   125  118  122 1   
   126  126  127 1   
   127  126  133 1   
   128  127  128 1   
   129  127  130 1   
   130  127  134 1   
   131  128  129 2   
   132  128  140 1   
   133  130  131 1   
   134  130  132 1   
   135  130  135 1   
   136  131  137 1   
   137  131  138 1   
   138  131  139 1   
   139  132  136 1   
   140  140  141 1   
   141  140  149 1   
   142  141  142 1   
   143  141  144 1   
   144  141  150 1   
   145  142  143 2   
   146  142  162 1   
   147  144  145 1   
   148  144  151 1   
   149  144  152 1   
   150  145  146 1   
   151  145  153 1   
   152  145  154 1   
   153  146  147 1   
   154  146  155 1   
   155  146  156 1   
   156  147  148 1   
   157  147  157 1   
   158  147  158 1   
   159  148  159 1   
   160  148  160 1   
   161  148  161 1   
   162  162  163 1   
   163  162  171 1   
   164  163  164 1   
   165  163  166 1   
   166  163  172 1   
   167  164  165 2   
   168  164  177 1   
   169  166  167 1   
   170  166  173 1   
   171  166  174 1   
   172  167  168 1   
   173  167  175 1   
   174  167  176 1   
   175  168  169 1   
   176  168  170 1   
   177  177  178 1   
   178  177  182 1   
   179  178  179 1   
   180  178  180 1   
   181  178  181 1   
   182  184  185 1   
   183  184  186 1   
   184  187  188 1   
   185  187  189 1   
   186  190  191 1   
   187  190  192 1   
   188  193  194 1   
   189  193  195 1   
   190  196  197 1   
   191  196  198 1   
@<TRIPOS>SUBSTRUCTURE
     1 MOL         1 TEMP              0 ****  ****    0 ROOT
