@<TRIPOS>MOLECULE
MOL
  179   176     1     0     0
SMALL
resp


@<TRIPOS>ATOM
      1 C1          3.1110   -0.0860    6.0570 c3        1 MOL     -0.382124
      2 C2          2.8110    0.1000    4.5570 c         1 MOL      0.673268
      3 O1          3.6230   -0.2510    3.6810 o         1 MOL     -0.584462
      4 H1          2.5930    0.6840    6.6280 hc        1 MOL      0.106781
      5 H2          2.7670   -1.0690    6.3780 hc        1 MOL      0.106781
      6 H3          4.1850   -0.0030    6.2270 hc        1 MOL      0.106781
      7 N1          1.7640    0.8440    4.2370 n         1 MOL     -0.508079
      8 C3          1.3750    1.1870    2.8920 c3        1 MOL      0.059771
      9 C4          2.1180    2.3540    2.3340 c         1 MOL      0.483041
     10 O2          1.6730    3.4870    2.6650 o         1 MOL     -0.514564
     11 C5         -0.1060    1.2540    2.8740 c3        1 MOL     -0.135072
     12 C6         -0.6330    1.3390    1.4310 c         1 MOL      0.628072
     13 O3         -1.8420    1.3800    1.1490 o         1 MOL     -0.746821
     14 O4          0.1170    1.2740    0.4320 o         1 MOL     -0.746821
     15 H4          1.3240    1.4040    4.9650 hn        1 MOL      0.305773
     16 H5          1.4820    0.3180    2.2560 h1        1 MOL      0.013504
     17 H6         -0.3810    2.1850    3.3730 hc        1 MOL      0.035702
     18 H7         -0.5340    0.3660    3.3380 hc        1 MOL      0.035702
     19 N2          3.1980    2.2690    1.5420 n         1 MOL     -0.238210
     20 C7          4.0130    3.3990    1.0870 c3        1 MOL     -0.141906
     21 C8          3.2950    4.3370    0.0570 c         1 MOL      0.534403
     22 O5          3.7070    5.4770   -0.0560 o         1 MOL     -0.549075
     23 C9          5.3260    2.8660    0.4270 c3        1 MOL      0.108517
     24 C10         6.4880    3.9200    0.3570 c3        1 MOL     -0.057939
     25 C11         7.7850    3.3520   -0.0880 c3        1 MOL     -0.043052
     26 C12         8.8790    4.4090   -0.2980 c3        1 MOL      0.087041
     27 N3         10.0290    3.8330   -0.9790 n4        1 MOL     -0.337327
     28 H8          3.5690    1.3550    1.3470 hn        1 MOL      0.228332
     29 H9          4.2670    3.9990    1.9580 h1        1 MOL      0.100621
     30 H10         5.0290    2.4790   -0.5440 hc        1 MOL      0.004880
     31 H11         5.7310    2.0420    1.0090 hc        1 MOL      0.004880
     32 H12         6.7070    4.3170    1.3390 hc        1 MOL      0.036219
     33 H13         6.1920    4.6890   -0.3630 hc        1 MOL      0.036219
     34 H14         7.5040    2.8150   -0.9860 hc        1 MOL      0.041522
     35 H15         8.2300    2.6970    0.6680 hc        1 MOL      0.041522
     36 H16         9.2170    4.7320    0.6760 hx        1 MOL      0.074000
     37 H17         8.5880    5.2880   -0.8630 hx        1 MOL      0.074000
     38 H18        10.4920    3.0530   -0.5370 hn        1 MOL      0.319320
     39 H19         9.7810    3.4900   -1.8990 hn        1 MOL      0.319320
     40 H20        10.6750    4.5530   -1.2630 hn        1 MOL      0.319320
     41 N4          2.1860    3.8260   -0.5890 n         1 MOL     -0.363864
     42 C13         1.3020    4.7090   -1.4530 c3        1 MOL     -0.013372
     43 C14         0.1040    5.3260   -0.6040 c         1 MOL      0.369122
     44 O6         -0.4700    6.3670   -0.9820 o         1 MOL     -0.520097
     45 C15         0.8260    3.9950   -2.7250 c3        1 MOL     -0.218910
     46 C16         0.0270    2.7420   -2.4780 c         1 MOL      0.725935
     47 O7         -1.1750    2.8790   -2.0340 o         1 MOL     -0.711832
     48 O8          0.6260    1.6580   -2.6370 o         1 MOL     -0.711832
     49 H21         1.8220    2.8940   -0.4490 hn        1 MOL      0.266378
     50 H22         1.9150    5.5630   -1.7630 h1        1 MOL      0.122717
     51 H23         1.6230    3.8270   -3.4450 hc        1 MOL      0.068347
     52 H24         0.1740    4.6790   -3.2600 hc        1 MOL      0.068347
     53 N5         -0.1940    4.8310    0.5980 n         1 MOL      0.062188
     54 C17        -1.2980    5.3430    1.4250 c3        1 MOL     -0.153850
     55 C18        -2.7550    5.0520    1.0650 c         1 MOL      0.685526
     56 O9         -3.7030    5.4320    1.7760 o         1 MOL     -0.607799
     57 H25         0.4170    4.1490    1.0260 hn        1 MOL      0.058824
     58 H26        -1.0610    6.3890    1.6000 h1        1 MOL      0.068100
     59 H27        -1.2940    4.8350    2.3890 h1        1 MOL      0.068100
     60 N6         -3.0010    4.3770   -0.0210 n         1 MOL     -0.361807
     61 C19        -4.3680    4.3200   -0.5510 c3        1 MOL     -0.004819
     62 C20        -4.7740    2.9590   -1.0960 c         1 MOL      0.631830
     63 O10        -3.9600    2.1400   -1.4660 o         1 MOL     -0.513321
     64 C21        -4.5530    5.3920   -1.6800 c3        1 MOL     -0.263146
     65 C22        -4.4530    6.7660   -1.0630 c         1 MOL      0.501614
     66 N7         -5.4460    7.3210   -0.5350 n         1 MOL     -0.600535
     67 O11        -3.3480    7.3680   -1.1340 o         1 MOL     -0.503060
     68 H28        -2.2790    4.0820   -0.6650 hn        1 MOL      0.296416
     69 H29        -5.1490    4.5500    0.1750 h1        1 MOL      0.043114
     70 H30        -5.5150    5.2760   -2.1860 hc        1 MOL      0.081403
     71 H31        -3.7930    5.3180   -2.4580 hc        1 MOL      0.081403
     72 H32        -6.3530    6.8950   -0.7000 hn        1 MOL      0.321114
     73 H33        -5.3540    8.2570   -0.1710 hn        1 MOL      0.321114
     74 N8         -6.1170    2.7170   -1.1250 n         1 MOL     -0.412388
     75 C23        -6.7530    1.5210   -1.5840 c3        1 MOL     -0.240342
     76 C24        -6.4710    0.3440   -0.6320 c         1 MOL      0.626297
     77 O12        -6.6330    0.4150    0.5640 o         1 MOL     -0.484657
     78 H34        -6.6400    3.3800   -0.5670 hn        1 MOL      0.298244
     79 H35        -6.4380    1.3380   -2.6090 h1        1 MOL      0.125083
     80 H36        -7.8120    1.7580   -1.6680 h1        1 MOL      0.125083
     81 N9         -6.0410   -0.8360   -1.2190 n         1 MOL     -0.736538
     82 C25        -5.6000   -2.0160   -0.4190 c3        1 MOL      0.703121
     83 C26        -4.3000   -1.7210    0.3670 c         1 MOL      0.329383
     84 O13        -3.5700   -0.7380    0.0970 o         1 MOL     -0.473086
     85 C27        -5.6090   -3.2700   -1.2990 c3        1 MOL     -0.397442
     86 C28        -6.9770   -3.9870   -1.3160 ca        1 MOL      0.101270
     87 C29        -8.1330   -3.4590   -1.8590 ca        1 MOL     -0.137717
     88 C30        -7.1740   -5.2730   -0.6320 ca        1 MOL     -0.137717
     89 C31        -9.3460   -4.1410   -1.9080 ca        1 MOL     -0.317151
     90 C32        -8.4450   -6.0330   -0.7710 ca        1 MOL     -0.317151
     91 C33        -9.5010   -5.4080   -1.4550 ca        1 MOL      0.409601
     92 O14       -10.6850   -6.0040   -1.7300 oh        1 MOL     -0.487606
     93 H37        -5.9420   -0.8650   -2.2220 hn        1 MOL      0.323825
     94 H38        -6.3430   -2.2640    0.3410 h1        1 MOL     -0.066954
     95 H39        -4.8720   -3.9060   -0.7900 hc        1 MOL      0.092575
     96 H40        -5.3390   -2.9650   -2.3040 hc        1 MOL      0.092575
     97 H41        -8.0160   -2.4900   -2.3300 ha        1 MOL      0.119122
     98 H42        -6.3780   -5.7160   -0.0620 ha        1 MOL      0.119122
     99 H43       -10.1430   -3.7670   -2.5420 ha        1 MOL      0.167516
    100 H44        -8.4510   -7.0350   -0.4050 ha        1 MOL      0.167516
    101 H45       -10.7760   -6.8100   -1.1990 ho        1 MOL      0.366372
    102 N10        -3.9840   -2.5770    1.3330 n         1 MOL     -0.529914
    103 C34        -2.8480   -2.5840    2.3630 c3        1 MOL      0.341012
    104 C35        -1.4050   -2.3630    1.8250 c         1 MOL      0.349843
    105 O15        -1.0650   -1.4850    1.0040 o         1 MOL     -0.382990
    106 C36        -3.1560   -1.5540    3.4570 c3        1 MOL      0.086973
    107 C37        -2.3120   -1.5810    4.7820 c3        1 MOL     -0.366079
    108 C38        -4.6750   -1.4410    3.9270 c3        1 MOL     -0.371220
    109 C39        -2.3270   -2.8620    5.6420 c3        1 MOL     -0.122048
    110 H46        -4.4850   -3.4470    1.2400 hn        1 MOL      0.269397
    111 H47        -2.8220   -3.6140    2.7330 h1        1 MOL     -0.005350
    112 H48        -2.9780   -0.5490    3.0780 hc        1 MOL      0.092777
    113 H49        -2.7120   -0.7720    5.3930 hc        1 MOL      0.145513
    114 H50        -1.2570   -1.3870    4.5740 hc        1 MOL      0.145513
    115 H51        -4.8580   -0.7500    4.7550 hc        1 MOL      0.108634
    116 H52        -5.1910   -1.0810    3.0330 hc        1 MOL      0.108634
    117 H53        -5.0180   -2.4110    4.2460 hc        1 MOL      0.108634
    118 H54        -1.9480   -3.7110    5.0700 hc        1 MOL      0.041614
    119 H55        -1.6250   -2.7780    6.4730 hc        1 MOL      0.041614
    120 H56        -3.3480   -3.0530    5.9770 hc        1 MOL      0.041614
    121 N11        -0.4290   -3.0440    2.5630 n         1 MOL     -0.658640
    122 C40         1.0070   -2.7470    2.5140 c3        1 MOL      0.025483
    123 C41         1.6830   -2.8890    1.1760 c         1 MOL      0.436380
    124 O16         2.8000   -2.4210    1.0610 o         1 MOL     -0.535200
    125 C42         1.7470   -3.6390    3.4650 c3        1 MOL      0.054545
    126 O17         1.0470   -3.6470    4.6870 oh        1 MOL     -0.600975
    127 H57        -0.7070   -3.5460    3.3980 hn        1 MOL      0.339750
    128 H58         1.1640   -1.7450    2.9150 h1        1 MOL      0.286865
    129 H59         2.7920   -3.3150    3.5680 h1        1 MOL      0.093540
    130 H60         1.7440   -4.6610    3.0910 h1        1 MOL      0.093540
    131 H61         0.5620   -4.4780    4.7350 ho        1 MOL      0.398482
    132 N12         1.1290   -3.3990    0.1460 n         1 MOL     -0.327790
    133 C43         1.6460   -3.2760   -1.1990 c3        1 MOL      0.100795
    134 C44         1.3630   -1.9040   -1.8950 c         1 MOL      0.595506
    135 O18         0.2020   -1.4520   -1.9330 o         1 MOL     -0.650031
    136 C45         0.9260   -4.3410   -2.0600 c3        1 MOL     -0.511689
    137 H62         0.1650   -3.6720    0.3040 hn        1 MOL      0.263329
    138 H63         2.7220   -3.4390   -1.1160 h1        1 MOL      0.139909
    139 H64         1.1810   -5.3740   -1.7740 hc        1 MOL      0.142565
    140 H65        -0.1570   -4.2210   -2.0550 hc        1 MOL      0.142565
    141 H66         1.1540   -4.2090   -3.1170 hc        1 MOL      0.142565
    142 N13         2.2780   -1.1070   -2.3430 n         1 MOL     -0.504177
    143 C46         3.6850   -1.2680   -2.0440 c3        1 MOL      0.061904
    144 C47         4.4020   -2.4470   -2.7210 c         1 MOL      0.799626
    145 O19         4.0880   -2.7740   -3.8380 o         1 MOL     -0.614509
    146 C48         4.4650   -0.0240   -2.4510 c3        1 MOL     -0.043558
    147 H67         1.8710   -0.2730   -2.7280 hn        1 MOL      0.362749
    148 H68         3.9000   -1.4560   -0.9910 h1        1 MOL      0.109585
    149 H69         4.0770    0.9060   -2.0270 hc        1 MOL      0.013980
    150 H70         5.4730   -0.1090   -2.0310 hc        1 MOL      0.013980
    151 H71         4.5600    0.0730   -3.5360 hc        1 MOL      0.013980
    152 N14         5.2750   -3.2220   -2.0590 n         1 MOL     -0.810827
    153 C49         5.6570   -3.2810   -0.6470 c3        1 MOL     -0.065881
    154 C50         5.7740   -4.6960   -0.1160 c         1 MOL      0.612061
    155 O20         5.4460   -4.9870    1.0280 o         1 MOL     -0.580910
    156 C51         6.9340   -2.5150   -0.4050 c3        1 MOL      0.364124
    157 C52         8.2160   -3.0720   -1.1070 c3        1 MOL     -0.279945
    158 C53         8.2440   -3.1700   -2.6710 c         1 MOL      0.776052
    159 O21         8.8320   -2.2890   -3.3190 o         1 MOL     -0.708876
    160 O22         7.7100   -4.1360   -3.2250 o         1 MOL     -0.708876
    161 H72         5.7930   -3.6810   -2.7860 hn        1 MOL      0.364295
    162 H73         4.8840   -2.7800   -0.0500 h1        1 MOL      0.036162
    163 H74         7.1190   -2.5370    0.6720 hc        1 MOL     -0.084862
    164 H75         6.8570   -1.4910   -0.7570 hc        1 MOL     -0.084862
    165 H76         8.3750   -4.0520   -0.6590 hc        1 MOL      0.006640
    166 H77         8.9640   -2.3150   -0.8370 hc        1 MOL      0.006640
    167 N15         6.3070   -5.6490   -0.9040 n         1 MOL     -0.254048
    168 C54         6.4760   -7.0650   -0.5310 c3        1 MOL     -0.135353
    169 H78         7.0240   -7.5840   -1.3180 h1        1 MOL      0.071221
    170 H79         7.0330   -7.1310    0.4030 h1        1 MOL      0.071221
    171 H80         5.4980   -7.5270   -0.4050 h1        1 MOL      0.071221
    172 H81         6.7590   -5.2980   -1.7370 hn        1 MOL      0.221512
    173 Ca1        -1.6580    0.3150   -1.2650 Ca        1 MOL      1.782809
    174 O23        -2.6850    0.5490   -3.6320 oh        1 MOL     -0.929342
    175 H82        -2.6060   -0.0450   -4.3860 ho        1 MOL      0.437199
    176 H83        -3.3550    1.1850   -3.8950 ho        1 MOL      0.437199
    177 O24        -2.3920   -2.0460   -2.6430 oh        1 MOL     -0.929342
    178 H84        -1.5790   -2.5160   -2.8210 ho        1 MOL      0.437199
    179 H85        -2.9840   -2.3060   -3.3430 ho        1 MOL      0.437199
@<TRIPOS>BOND
     1    1    2 1   
     2    1    4 1   
     3    1    5 1   
     4    1    6 1   
     5    2    3 2   
     6    2    7 1   
     7    7    8 1   
     8    7   15 1   
     9    8    9 1   
    10    8   11 1   
    11    8   16 1   
    12    9   10 2   
    13    9   19 1   
    14   11   12 1   
    15   11   17 1   
    16   11   18 1   
    17   12   13 1   
    18   12   14 1   
    19   19   20 1   
    20   19   28 1   
    21   20   21 1   
    22   20   23 1   
    23   20   29 1   
    24   21   22 2   
    25   21   41 1   
    26   23   24 1   
    27   23   30 1   
    28   23   31 1   
    29   24   25 1   
    30   24   32 1   
    31   24   33 1   
    32   25   26 1   
    33   25   34 1   
    34   25   35 1   
    35   26   27 1   
    36   26   36 1   
    37   26   37 1   
    38   27   38 1   
    39   27   39 1   
    40   27   40 1   
    41   41   42 1   
    42   41   49 1   
    43   42   43 1   
    44   42   45 1   
    45   42   50 1   
    46   43   44 2   
    47   43   53 1   
    48   45   46 1   
    49   45   51 1   
    50   45   52 1   
    51   46   47 1   
    52   46   48 1   
    53   53   54 1   
    54   53   57 1   
    55   54   55 1   
    56   54   58 1   
    57   54   59 1   
    58   55   56 2   
    59   55   60 1   
    60   60   61 1   
    61   60   68 1   
    62   61   62 1   
    63   61   64 1   
    64   61   69 1   
    65   62   63 2   
    66   62   74 1   
    67   64   65 1   
    68   64   70 1   
    69   64   71 1   
    70   65   66 1   
    71   65   67 2   
    72   66   72 1   
    73   66   73 1   
    74   74   75 1   
    75   74   78 1   
    76   75   76 1   
    77   75   79 1   
    78   75   80 1   
    79   76   77 2   
    80   76   81 1   
    81   81   82 1   
    82   81   93 1   
    83   82   83 1   
    84   82   85 1   
    85   82   94 1   
    86   83   84 2   
    87   83  102 1   
    88   85   86 1   
    89   85   95 1   
    90   85   96 1   
    91   86   87 ar  
    92   86   88 ar  
    93   87   89 ar  
    94   87   97 1   
    95   88   90 ar  
    96   88   98 1   
    97   89   91 ar  
    98   89   99 1   
    99   90   91 ar  
   100   90  100 1   
   101   91   92 1   
   102   92  101 1   
   103  102  103 1   
   104  102  110 1   
   105  103  104 1   
   106  103  106 1   
   107  103  111 1   
   108  104  105 2   
   109  104  121 1   
   110  106  107 1   
   111  106  108 1   
   112  106  112 1   
   113  107  109 1   
   114  107  113 1   
   115  107  114 1   
   116  108  115 1   
   117  108  116 1   
   118  108  117 1   
   119  109  118 1   
   120  109  119 1   
   121  109  120 1   
   122  121  122 1   
   123  121  127 1   
   124  122  123 1   
   125  122  125 1   
   126  122  128 1   
   127  123  124 2   
   128  123  132 1   
   129  125  126 1   
   130  125  129 1   
   131  125  130 1   
   132  126  131 1   
   133  132  133 1   
   134  132  137 1   
   135  133  134 1   
   136  133  136 1   
   137  133  138 1   
   138  134  135 2   
   139  134  142 1   
   140  136  139 1   
   141  136  140 1   
   142  136  141 1   
   143  142  143 1   
   144  142  147 1   
   145  143  144 1   
   146  143  146 1   
   147  143  148 1   
   148  144  145 2   
   149  144  152 1   
   150  146  149 1   
   151  146  150 1   
   152  146  151 1   
   153  152  153 1   
   154  152  161 1   
   155  153  154 1   
   156  153  156 1   
   157  153  162 1   
   158  154  155 2   
   159  154  167 1   
   160  156  157 1   
   161  156  163 1   
   162  156  164 1   
   163  157  158 1   
   164  157  165 1   
   165  157  166 1   
   166  158  159 1   
   167  158  160 1   
   168  167  168 1   
   169  167  172 1   
   170  168  169 1   
   171  168  170 1   
   172  168  171 1   
   173  174  175 1   
   174  174  176 1   
   175  177  178 1   
   176  177  179 1   
@<TRIPOS>SUBSTRUCTURE
     1 MOL         1 TEMP              0 ****  ****    0 ROOT
