@<TRIPOS>MOLECULE
MOL
  192   187     1     0     0
SMALL
resp


@<TRIPOS>ATOM
      1 C1          9.2140    1.7770    1.1430 c3        1 MOL     -0.475391
      2 C2          8.2220    0.8020    0.5440 c         1 MOL      0.832592
      3 O1          7.2280    0.4030    1.1700 o         1 MOL     -0.691344
      4 H1          9.9500    1.2300    1.7330 hc        1 MOL      0.118278
      5 H2          9.7200    2.3190    0.3440 hc        1 MOL      0.118278
      6 H3          8.6880    2.4840    1.7850 hc        1 MOL      0.118278
      7 N1          8.5210    0.2790   -0.6580 n         1 MOL     -0.680442
      8 C3          7.4550   -0.3200   -1.5150 c3        1 MOL      0.125304
      9 C4          6.9860   -1.8090   -1.2130 c         1 MOL      0.491273
     10 O2          6.7850   -2.6000   -2.0980 o         1 MOL     -0.437141
     11 C5          7.8880   -0.0250   -2.9950 c3        1 MOL     -0.307966
     12 C6          9.2470   -0.4690   -3.5020 c         1 MOL      0.721477
     13 O3         10.0070   -1.1470   -2.7770 o         1 MOL     -0.662491
     14 O4          9.5560   -0.1910   -4.7280 o         1 MOL     -0.662491
     15 H4          9.3260    0.7430   -1.0510 hn        1 MOL      0.342594
     16 H5          6.5610    0.2890   -1.3990 h1        1 MOL      0.098968
     17 H6          7.8000    1.0590   -3.0620 hc        1 MOL      0.089041
     18 H7          7.1980   -0.5340   -3.6730 hc        1 MOL      0.089041
     19 N2          6.7960   -2.1510    0.0900 n         1 MOL     -0.179248
     20 C7          6.3150   -3.3840    0.6450 c3        1 MOL     -0.207605
     21 C8          4.8720   -3.7530    0.2060 c         1 MOL      0.478811
     22 O5          4.5210   -4.8930   -0.1290 o         1 MOL     -0.528413
     23 C9          6.4110   -3.4880    2.2080 c3        1 MOL      0.106337
     24 C10         7.7670   -3.1050    2.7990 c3        1 MOL     -0.027544
     25 C11         8.9440   -3.8490    2.2690 c3        1 MOL     -0.068467
     26 C12        10.3360   -3.2260    2.6860 c3        1 MOL      0.032983
     27 N3         10.6400   -3.3050    4.1090 n4        1 MOL     -0.164006
     28 H8          6.9340   -1.4320    0.7870 hn        1 MOL      0.178080
     29 H9          6.9330   -4.1500    0.1760 h1        1 MOL      0.108248
     30 H10         6.2870   -4.5210    2.5200 hc        1 MOL      0.024940
     31 H11         5.6170   -3.0070    2.7710 hc        1 MOL      0.024940
     32 H12         7.6430   -3.2530    3.8720 hc        1 MOL     -0.010965
     33 H13         8.0550   -2.0580    2.7090 hc        1 MOL     -0.010965
     34 H14         8.8630   -3.8430    1.1840 hc        1 MOL      0.057465
     35 H15         8.8100   -4.8720    2.6300 hc        1 MOL      0.057465
     36 H16        10.3720   -2.1570    2.4460 hx        1 MOL      0.077198
     37 H17        11.1720   -3.7360    2.2200 hx        1 MOL      0.077198
     38 H18        10.2400   -2.4860    4.5350 hn        1 MOL      0.229910
     39 H19        10.2560   -4.1280    4.5460 hn        1 MOL      0.229910
     40 H20        11.6240   -3.2250    4.3180 hn        1 MOL      0.229910
     41 N4          3.8770   -2.8700    0.3110 n         1 MOL     -0.362436
     42 C13         3.9110   -1.5630    1.0530 c3        1 MOL      0.100909
     43 C14         3.8850   -0.3300    0.1160 c         1 MOL      0.083026
     44 O6          3.8210   -0.4590   -1.1120 o         1 MOL     -0.404109
     45 C15         2.7410   -1.5750    2.0630 c3        1 MOL     -0.135758
     46 C16         1.3760   -1.9180    1.4090 c         1 MOL      0.642019
     47 O7          0.7590   -1.0180    0.8280 o         1 MOL     -0.626006
     48 O8          1.0040   -3.1310    1.6090 o         1 MOL     -0.626006
     49 H21         3.0370   -3.1530   -0.1830 hn        1 MOL      0.347482
     50 H22         4.7800   -1.2930    1.6530 h1        1 MOL      0.114548
     51 H23         2.6910   -0.6020    2.5550 hc        1 MOL      0.000492
     52 H24         2.9580   -2.3690    2.7820 hc        1 MOL      0.000492
     53 N5          4.0430    0.8820    0.7260 n         1 MOL     -0.139761
     54 C17         4.1950    2.1370    0.0090 c3        1 MOL     -0.374488
     55 C18         2.8010    2.5740   -0.6220 c         1 MOL      0.554615
     56 O9          1.7270    2.0270   -0.3980 o         1 MOL     -0.413204
     57 H25         4.1500    0.8630    1.7330 hn        1 MOL      0.265792
     58 H26         4.9000    2.0140   -0.8050 h1        1 MOL      0.158588
     59 H27         4.4770    2.9060    0.7230 h1        1 MOL      0.158588
     60 N6          2.9300    3.6220   -1.3460 n         1 MOL     -0.429008
     61 C19         1.9660    4.4180   -2.0300 c3        1 MOL      0.280500
     62 C20         2.4460    5.8220   -2.3270 c         1 MOL      0.374802
     63 O10         3.6490    6.1310   -2.3940 o         1 MOL     -0.531136
     64 C21         1.5440    3.8880   -3.3760 c3        1 MOL     -0.140647
     65 C22         1.0990    2.4060   -3.3440 c         1 MOL      0.651156
     66 O11        -0.0340    2.1230   -2.9100 o         1 MOL     -0.694944
     67 O12         1.8470    1.4300   -3.6680 o         1 MOL     -0.694944
     68 H28         3.8650    3.9970   -1.4060 hn        1 MOL      0.260403
     69 H29         1.0360    4.4210   -1.4440 h1        1 MOL     -0.004119
     70 H30         2.4020    3.8870   -4.0500 hc        1 MOL      0.038451
     71 H31         0.8110    4.5080   -3.8930 hc        1 MOL      0.038451
     72 N7          1.6520    6.8400   -2.4900 n         1 MOL     -0.313021
     73 C23         0.2100    6.8240   -2.4630 c3        1 MOL     -0.164756
     74 C24        -0.4110    6.3350   -1.0640 c         1 MOL      0.567161
     75 O13         0.2290    6.2500   -0.0210 o         1 MOL     -0.500195
     76 H32         2.0840    7.7260   -2.7360 hn        1 MOL      0.316641
     77 H33        -0.3280    6.1830   -3.1710 h1        1 MOL      0.087266
     78 H34        -0.1030    7.8630   -2.5980 h1        1 MOL      0.087266
     79 N8         -1.5930    5.8620   -1.1050 n         1 MOL     -0.432381
     80 C25        -2.3210    5.0450   -0.0500 c3        1 MOL     -0.132208
     81 C26        -1.5900    3.8090    0.5210 c         1 MOL      0.237706
     82 O14        -0.9820    2.9680   -0.1850 o         1 MOL     -0.410138
     83 C27        -3.6610    4.6630   -0.5570 c3        1 MOL      0.187069
     84 C28        -4.4630    3.7860    0.3890 c3        1 MOL     -0.336928
     85 O15        -3.5360    3.8790   -1.6590 oh        1 MOL     -0.553230
     86 H35        -2.1930    5.9230   -1.9060 hn        1 MOL      0.266555
     87 H36        -2.4170    5.7620    0.7600 h1        1 MOL      0.141694
     88 H37        -4.3060    5.4900   -0.8720 h1        1 MOL      0.068193
     89 H38        -3.1080    4.3950   -2.3350 ho        1 MOL      0.417050
     90 H39        -4.6400    4.2130    1.3770 hc        1 MOL      0.106354
     91 H40        -5.4510    3.6200   -0.0300 hc        1 MOL      0.106354
     92 H41        -3.9490    2.8280    0.5460 hc        1 MOL      0.106354
     93 N9         -1.5970    3.6620    1.8830 n         1 MOL     -0.141795
     94 C29        -1.2010    2.5490    2.7790 c3        1 MOL     -0.237220
     95 C30        -1.9210    1.2540    2.5840 c         1 MOL      0.743099
     96 O16        -2.0210    0.7770    1.4520 o         1 MOL     -0.514978
     97 C31         0.3460    2.2880    2.7020 c3        1 MOL      0.381195
     98 C32         1.1290    3.6350    2.7170 c3        1 MOL     -0.249356
     99 C33         1.0970    1.4170    3.7740 c3        1 MOL     -0.456236
    100 C34         0.9050    4.6070    3.8380 c3        1 MOL     -0.215441
    101 H42        -2.0040    4.4420    2.3700 hn        1 MOL      0.224739
    102 H43        -1.2990    2.8890    3.8060 h1        1 MOL      0.063561
    103 H44         0.5390    1.7980    1.7480 hc        1 MOL     -0.183178
    104 H45         0.8640    4.2270    1.8420 hc        1 MOL      0.118250
    105 H46         2.2020    3.5400    2.5130 hc        1 MOL      0.118250
    106 H47         0.8490    0.3750    3.5650 hc        1 MOL      0.121876
    107 H48         2.1800    1.5110    3.6380 hc        1 MOL      0.121876
    108 H49         0.9450    1.8950    4.7340 hc        1 MOL      0.121876
    109 H50         1.1790    4.1820    4.8060 hc        1 MOL      0.059724
    110 H51         1.5620    5.4440    3.5910 hc        1 MOL      0.059724
    111 H52        -0.1210    4.9590    3.9390 hc        1 MOL      0.059724
    112 N10        -2.3180    0.6720    3.7400 n         1 MOL     -0.733082
    113 C35        -2.8330   -0.7130    3.7060 c3        1 MOL     -0.222828
    114 C36        -4.2330   -0.8530    2.9590 c         1 MOL      0.754791
    115 O17        -4.6630   -1.9570    2.8060 o         1 MOL     -0.555112
    116 C37        -2.8350   -1.3270    5.0910 c3        1 MOL      0.416533
    117 C38        -3.7650   -0.6730    6.1580 c3        1 MOL     -0.278525
    118 O18        -1.4550   -1.1990    5.4590 oh        1 MOL     -0.656706
    119 H53        -2.0650    1.0730    4.6340 hn        1 MOL      0.406774
    120 H54        -2.2370   -1.3220    3.0340 h1        1 MOL      0.179065
    121 H55        -2.9760   -2.4000    5.0900 h1        1 MOL      0.018930
    122 H56        -0.8600   -1.6900    4.8910 ho        1 MOL      0.422178
    123 H57        -3.3300   -0.8100    7.1450 hc        1 MOL      0.083983
    124 H58        -3.9680    0.4020    6.1050 hc        1 MOL      0.083983
    125 H59        -4.7710   -1.0990    6.1590 hc        1 MOL      0.083983
    126 N11        -4.8700    0.3310    2.6740 n         1 MOL     -0.501897
    127 C39        -6.1580    0.2250    2.1100 c3        1 MOL     -0.142909
    128 C40        -6.1590   -0.4650    0.7100 c         1 MOL      0.455516
    129 O19        -5.4690    0.0340   -0.2000 o         1 MOL     -0.446074
    130 C41        -6.9900    1.5350    2.0700 c3        1 MOL      0.578487
    131 C42        -8.4400    1.4540    1.7260 c3        1 MOL     -0.445607
    132 O20        -6.9700    2.2320    3.2760 oh        1 MOL     -0.633234
    133 H60        -4.4690    1.2570    2.7310 hn        1 MOL      0.286463
    134 H61        -6.7600   -0.4120    2.7510 h1        1 MOL      0.079825
    135 H62        -6.5710    2.1720    1.2900 h1        1 MOL     -0.087495
    136 H63        -6.0520    2.4850    3.4190 ho        1 MOL      0.378076
    137 H64        -8.8460    2.4580    1.8070 hc        1 MOL      0.116060
    138 H65        -8.6260    1.3430    0.6530 hc        1 MOL      0.116060
    139 H66        -8.9530    0.7350    2.3660 hc        1 MOL      0.116060
    140 N12        -6.8430   -1.5980    0.4960 n         1 MOL     -0.489026
    141 C43        -7.0070   -2.3380   -0.8140 c3        1 MOL      0.144235
    142 C44        -5.7430   -2.6990   -1.5580 c         1 MOL      0.400475
    143 O21        -5.6710   -2.5020   -2.7850 o         1 MOL     -0.465955
    144 C45        -8.1570   -1.7800   -1.6370 c3        1 MOL     -0.222257
    145 C46        -9.5490   -2.1030   -1.0530 c3        1 MOL      0.079749
    146 C47       -10.7190   -1.6600   -1.9750 c3        1 MOL     -0.227639
    147 C48       -11.9780   -1.7130   -1.0520 c3        1 MOL      0.047250
    148 N13       -13.0100   -0.9560   -1.6850 n4        1 MOL     -0.120387
    149 H67        -7.4560   -1.9010    1.2370 hn        1 MOL      0.292625
    150 H68        -7.3410   -3.3420   -0.5220 h1        1 MOL      0.027059
    151 H69        -8.1390   -2.0610   -2.6920 hc        1 MOL      0.090262
    152 H70        -7.8650   -0.7290   -1.6900 hc        1 MOL      0.090262
    153 H71        -9.6350   -1.5870   -0.0980 hc        1 MOL      0.019304
    154 H72        -9.6190   -3.1580   -0.8130 hc        1 MOL      0.019304
    155 H73       -10.8640   -2.3790   -2.7800 hc        1 MOL      0.104244
    156 H74       -10.5790   -0.7160   -2.5030 hc        1 MOL      0.104244
    157 H75       -11.6630   -1.3710   -0.0540 hx        1 MOL      0.062877
    158 H76       -12.3110   -2.7460   -0.9090 hx        1 MOL      0.062877
    159 H77       -13.3030   -1.3040   -2.5870 hn        1 MOL      0.179343
    160 H78       -13.7920   -0.9130   -1.0550 hn        1 MOL      0.179343
    161 H79       -12.7020    0.0000   -1.8350 hn        1 MOL      0.179343
    162 N14        -4.6600   -3.1320   -0.8120 n         1 MOL     -0.302878
    163 C49        -3.2670   -3.3670   -1.3820 c3        1 MOL     -0.058920
    164 C50        -2.2620   -2.7920   -0.3570 c         1 MOL      0.505984
    165 O22        -1.9790   -1.6270   -0.3960 o         1 MOL     -0.621704
    166 C51        -3.0880   -4.7400   -2.0640 c3        1 MOL     -0.147338
    167 C52        -3.7680   -4.9370   -3.4590 c3        1 MOL     -0.176295
    168 C53        -3.3640   -6.2430   -4.0670 c         1 MOL      0.660900
    169 O23        -3.7910   -7.2670   -3.5490 o         1 MOL     -0.602481
    170 O24        -2.3820   -6.2600   -4.8130 o         1 MOL     -0.602481
    171 H80        -4.8900   -3.2460    0.1660 hn        1 MOL      0.270020
    172 H81        -3.0630   -2.7110   -2.2320 h1        1 MOL      0.183995
    173 H82        -3.5400   -5.3890   -1.3190 hc        1 MOL      0.097401
    174 H83        -2.0330   -5.0120   -2.1200 hc        1 MOL      0.097401
    175 H84        -3.4650   -4.0780   -4.0590 hc        1 MOL      0.036980
    176 H85        -4.8530   -4.8050   -3.4840 hc        1 MOL      0.036980
    177 N15        -1.5850   -3.5880    0.4900 n         1 MOL     -0.342973
    178 C54        -1.9520   -4.8730    1.0950 c3        1 MOL      0.079681
    179 H86        -2.7100   -5.3600    0.4810 h1        1 MOL      0.015510
    180 H87        -1.0700   -5.5110    1.1560 h1        1 MOL      0.015510
    181 H88        -2.3490   -4.7050    2.0960 h1        1 MOL      0.015510
    182 H89        -0.7930   -3.0980    0.8740 hn        1 MOL      0.233764
    183 Ca1        -0.5270    0.3860   -0.9390 Ca        1 MOL      1.757554
    184 O25         1.4290   -0.7600   -2.3180 oh        1 MOL     -0.875814
    185 H90         2.3090   -0.7020   -1.9430 ho        1 MOL      0.426368
    186 H91         1.4390   -0.1410   -3.0540 ho        1 MOL      0.426368
    187 O26        -3.1320    1.0510   -1.7290 oh        1 MOL     -0.875814
    188 H92        -3.2480    1.9870   -1.5760 ho        1 MOL      0.426368
    189 H93        -3.9060    0.6370   -1.3400 ho        1 MOL      0.426368
    190 O27        -1.1770   -0.9580   -3.2570 oh        1 MOL     -0.875814
    191 H94        -0.5110   -1.5150   -3.6570 ho        1 MOL      0.426368
    192 H95        -1.7750   -0.7410   -3.9700 ho        1 MOL      0.426368
@<TRIPOS>BOND
     1    1    2 1   
     2    1    4 1   
     3    1    5 1   
     4    1    6 1   
     5    2    3 2   
     6    2    7 1   
     7    7    8 1   
     8    7   15 1   
     9    8    9 1   
    10    8   11 1   
    11    8   16 1   
    12    9   10 2   
    13    9   19 1   
    14   11   12 1   
    15   11   17 1   
    16   11   18 1   
    17   12   13 1   
    18   12   14 1   
    19   19   20 1   
    20   19   28 1   
    21   20   21 1   
    22   20   23 1   
    23   20   29 1   
    24   21   22 2   
    25   21   41 1   
    26   23   24 1   
    27   23   30 1   
    28   23   31 1   
    29   24   25 1   
    30   24   32 1   
    31   24   33 1   
    32   25   26 1   
    33   25   34 1   
    34   25   35 1   
    35   26   27 1   
    36   26   36 1   
    37   26   37 1   
    38   27   38 1   
    39   27   39 1   
    40   27   40 1   
    41   41   42 1   
    42   41   49 1   
    43   42   43 1   
    44   42   45 1   
    45   42   50 1   
    46   43   44 2   
    47   43   53 1   
    48   45   46 1   
    49   45   51 1   
    50   45   52 1   
    51   46   47 1   
    52   46   48 1   
    53   53   54 1   
    54   53   57 1   
    55   54   55 1   
    56   54   58 1   
    57   54   59 1   
    58   55   56 2   
    59   55   60 1   
    60   60   61 1   
    61   60   68 1   
    62   61   62 1   
    63   61   64 1   
    64   61   69 1   
    65   62   63 2   
    66   62   72 1   
    67   64   65 1   
    68   64   70 1   
    69   64   71 1   
    70   65   66 1   
    71   65   67 1   
    72   72   73 1   
    73   72   76 1   
    74   73   74 1   
    75   73   77 1   
    76   73   78 1   
    77   74   75 2   
    78   74   79 1   
    79   79   80 1   
    80   79   86 1   
    81   80   81 1   
    82   80   83 1   
    83   80   87 1   
    84   81   82 2   
    85   81   93 1   
    86   83   84 1   
    87   83   85 1   
    88   83   88 1   
    89   84   90 1   
    90   84   91 1   
    91   84   92 1   
    92   85   89 1   
    93   93   94 1   
    94   93  101 1   
    95   94   95 1   
    96   94   97 1   
    97   94  102 1   
    98   95   96 2   
    99   95  112 1   
   100   97   98 1   
   101   97   99 1   
   102   97  103 1   
   103   98  100 1   
   104   98  104 1   
   105   98  105 1   
   106   99  106 1   
   107   99  107 1   
   108   99  108 1   
   109  100  109 1   
   110  100  110 1   
   111  100  111 1   
   112  112  113 1   
   113  112  119 1   
   114  113  114 1   
   115  113  116 1   
   116  113  120 1   
   117  114  115 2   
   118  114  126 1   
   119  116  117 1   
   120  116  118 1   
   121  116  121 1   
   122  117  123 1   
   123  117  124 1   
   124  117  125 1   
   125  118  122 1   
   126  126  127 1   
   127  126  133 1   
   128  127  128 1   
   129  127  130 1   
   130  127  134 1   
   131  128  129 2   
   132  128  140 1   
   133  130  131 1   
   134  130  132 1   
   135  130  135 1   
   136  131  137 1   
   137  131  138 1   
   138  131  139 1   
   139  132  136 1   
   140  140  141 1   
   141  140  149 1   
   142  141  142 1   
   143  141  144 1   
   144  141  150 1   
   145  142  143 2   
   146  142  162 1   
   147  144  145 1   
   148  144  151 1   
   149  144  152 1   
   150  145  146 1   
   151  145  153 1   
   152  145  154 1   
   153  146  147 1   
   154  146  155 1   
   155  146  156 1   
   156  147  148 1   
   157  147  157 1   
   158  147  158 1   
   159  148  159 1   
   160  148  160 1   
   161  148  161 1   
   162  162  163 1   
   163  162  171 1   
   164  163  164 1   
   165  163  166 1   
   166  163  172 1   
   167  164  165 2   
   168  164  177 1   
   169  166  167 1   
   170  166  173 1   
   171  166  174 1   
   172  167  168 1   
   173  167  175 1   
   174  167  176 1   
   175  168  169 1   
   176  168  170 1   
   177  177  178 1   
   178  177  182 1   
   179  178  179 1   
   180  178  180 1   
   181  178  181 1   
   182  184  185 1   
   183  184  186 1   
   184  187  188 1   
   185  187  189 1   
   186  190  191 1   
   187  190  192 1   
@<TRIPOS>SUBSTRUCTURE
     1 MOL         1 TEMP              0 ****  ****    0 ROOT
