@<TRIPOS>MOLECULE
MOL
  192   187     1     0     0
SMALL
resp


@<TRIPOS>ATOM
      1 C1          4.5240    3.2670   -4.3200 c3        1 MOL     -0.532641
      2 C2          5.2660    2.7000   -3.1130 c         1 MOL      0.737626
      3 O1          4.6690    2.6600   -1.9770 o         1 MOL     -0.592547
      4 H1          4.8890    4.2720   -4.5320 hc        1 MOL      0.135250
      5 H2          4.6970    2.6290   -5.1860 hc        1 MOL      0.135250
      6 H3          3.4570    3.3070   -4.1050 hc        1 MOL      0.135250
      7 N1          6.5670    2.2730   -3.2590 n         1 MOL     -0.535919
      8 C3          7.3570    1.3950   -2.4130 c3        1 MOL      0.246102
      9 C4          6.5320    0.2370   -1.8220 c         1 MOL      0.354144
     10 O2          6.1030    0.2300   -0.6540 o         1 MOL     -0.558146
     11 C5          8.3080    2.1470   -1.4540 c3        1 MOL     -0.063070
     12 C6          7.7790    3.2740   -0.5690 c         1 MOL      0.600777
     13 O3          6.6970    3.2110   -0.0300 o         1 MOL     -0.698807
     14 O4          8.5150    4.2520   -0.4310 o         1 MOL     -0.698807
     15 H4          7.0050    2.6330   -4.0930 hn        1 MOL      0.280287
     16 H5          8.0360    0.9950   -3.1640 h1        1 MOL     -0.008782
     17 H6          9.0410    2.6390   -2.0940 hc        1 MOL      0.018716
     18 H7          8.9120    1.4670   -0.8540 hc        1 MOL      0.018716
     19 N2          6.2250   -0.7010   -2.7200 n         1 MOL     -0.465330
     20 C7          5.4030   -1.8800   -2.6150 c3        1 MOL      0.228776
     21 C8          6.0320   -2.9870   -1.7450 c         1 MOL      0.298923
     22 O5          6.2890   -4.1190   -2.1950 o         1 MOL     -0.544440
     23 C9          3.9220   -1.4520   -2.3790 c3        1 MOL      0.134795
     24 C10         2.9610   -2.5600   -2.5870 c3        1 MOL      0.011459
     25 C11         3.2840   -0.2200   -3.1430 c3        1 MOL     -0.286565
     26 C12         2.6230   -3.0790   -3.9360 c3        1 MOL     -0.374585
     27 H8          6.5780   -0.4870   -3.6480 hn        1 MOL      0.259108
     28 H9          5.3950   -2.3400   -3.6050 h1        1 MOL     -0.003729
     29 H10         3.8530   -1.0380   -1.3680 hc        1 MOL      0.022966
     30 H11         2.0250   -2.2950   -2.0980 hc        1 MOL      0.054726
     31 H12         3.3690   -3.3620   -1.9660 hc        1 MOL      0.054726
     32 H13         2.2110   -0.1260   -2.9470 hc        1 MOL      0.049549
     33 H14         3.8050    0.6290   -2.6950 hc        1 MOL      0.049549
     34 H15         3.5610   -0.3480   -4.1800 hc        1 MOL      0.049549
     35 H16         3.5040   -3.5920   -4.3140 hc        1 MOL      0.077523
     36 H17         1.8200   -3.8260   -3.9160 hc        1 MOL      0.077523
     37 H18         2.2090   -2.2870   -4.5650 hc        1 MOL      0.077523
     38 N3          6.1960   -2.6970   -0.4520 n         1 MOL     -0.019387
     39 C13         6.8270   -3.6240    0.4600 c3        1 MOL     -0.120551
     40 C14         6.0780   -4.9180    0.8420 c         1 MOL      0.538523
     41 O6          6.7560   -5.9490    1.0290 o         1 MOL     -0.575222
     42 C15         7.3730   -2.9480    1.7830 c3        1 MOL     -0.046577
     43 C16         8.1520   -1.6830    1.5510 c         1 MOL      0.790282
     44 O7          8.0560   -0.8780    2.4960 o         1 MOL     -0.740991
     45 O8          8.9610   -1.6400    0.6040 o         1 MOL     -0.740991
     46 H19         5.9370   -1.7830   -0.1070 hn        1 MOL      0.243512
     47 H20         7.7050   -3.9470   -0.0900 h1        1 MOL      0.072645
     48 H21         8.0360   -3.6640    2.2570 hc        1 MOL      0.025493
     49 H22         6.5840   -2.8200    2.5180 hc        1 MOL      0.025493
     50 N4          4.7460   -4.8670    1.1350 n         1 MOL     -0.490659
     51 C17         3.8740   -3.6650    1.2370 c3        1 MOL      0.141458
     52 C18         2.6770   -3.7920    2.2440 c         1 MOL      0.726057
     53 O9          2.2610   -4.9000    2.5590 o         1 MOL     -0.619815
     54 H23         4.4250   -5.7540    1.5040 hn        1 MOL      0.270802
     55 H24         3.3930   -3.4860    0.2690 h1        1 MOL     -0.032196
     56 H25         4.4520   -2.7930    1.5460 h1        1 MOL     -0.032196
     57 N5          2.1280   -2.7620    2.8860 n         1 MOL     -0.561955
     58 C19         2.6300   -1.3460    2.9480 c3        1 MOL      0.018392
     59 C20         2.7560   -0.7220    1.5010 c         1 MOL      0.539419
     60 O10         3.7810   -0.3160    1.1070 o         1 MOL     -0.635234
     61 C21         3.8290   -1.1070    3.8120 c3        1 MOL      0.045889
     62 C22         3.6340   -1.3320    5.3050 c         1 MOL      0.663483
     63 O11         2.4560   -1.5010    5.8080 o         1 MOL     -0.724836
     64 O12         4.6660   -1.4220    6.0410 o         1 MOL     -0.724836
     65 H26         1.3040   -2.9280    3.4490 hn        1 MOL      0.304122
     66 H27         1.8970   -0.6770    3.4010 h1        1 MOL      0.016464
     67 H28         4.2590   -0.1140    3.7150 hc        1 MOL     -0.013773
     68 H29         4.5710   -1.8110    3.4680 hc        1 MOL     -0.013773
     69 N6          1.7130   -0.6880    0.6720 n         1 MOL     -0.168813
     70 C23         0.3800   -1.1140    0.9490 c3        1 MOL     -0.005153
     71 C24         0.0160   -2.5190    0.4940 c         1 MOL      0.523313
     72 O13         0.8940   -3.1560   -0.0680 o         1 MOL     -0.532950
     73 H30         1.7760   -0.0800   -0.1320 hn        1 MOL      0.185171
     74 H31        -0.4100   -0.4780    0.5470 h1        1 MOL      0.009241
     75 H32         0.2480   -1.1920    2.0270 h1        1 MOL      0.009241
     76 N7         -1.2670   -2.8930    0.7240 n         1 MOL     -0.408426
     77 C25        -1.7870   -4.2040    0.2780 c3        1 MOL     -0.003352
     78 C26        -2.5700   -4.1450   -1.0760 c         1 MOL      0.442521
     79 O14        -2.8050   -5.2150   -1.6630 o         1 MOL     -0.531850
     80 C27        -2.4700   -5.0160    1.4400 c3        1 MOL      0.010161
     81 C28        -3.7130   -4.4980    2.2120 c3        1 MOL     -0.076627
     82 C29        -4.9510   -4.0330    1.4240 c         1 MOL      0.493885
     83 N8         -5.9830   -4.7920    1.1690 n         1 MOL     -0.615269
     84 O15        -4.8280   -2.9840    0.7760 o         1 MOL     -0.553988
     85 H33        -1.9050   -2.2040    1.0920 hn        1 MOL      0.272045
     86 H34        -0.8800   -4.7400    0.0080 h1        1 MOL      0.108297
     87 H35        -1.7350   -5.2370    2.2120 hc        1 MOL      0.031878
     88 H36        -2.8660   -5.9290    0.9920 hc        1 MOL      0.031878
     89 H37        -3.4190   -3.5740    2.7000 hc        1 MOL      0.038804
     90 H38        -4.0380   -5.2330    2.9420 hc        1 MOL      0.038804
     91 H39        -5.9430   -5.6670    1.6560 hn        1 MOL      0.318843
     92 H40        -6.7120   -4.6370    0.4860 hn        1 MOL      0.318843
     93 N9         -3.1350   -2.9920   -1.5710 n         1 MOL     -0.116145
     94 C30        -3.6380   -2.8310   -2.8780 c3        1 MOL     -0.149516
     95 C31        -5.1080   -2.3070   -2.9740 c         1 MOL      0.432590
     96 O16        -5.5980   -2.0200   -4.0680 o         1 MOL     -0.535786
     97 C32        -2.7250   -1.9900   -3.7620 c3        1 MOL      0.222993
     98 C33        -1.4400   -2.8170   -4.0480 c3        1 MOL     -0.288633
     99 C34        -2.3110   -0.6090   -3.1300 c3        1 MOL     -0.288633
    100 H41        -3.0010   -2.1890   -0.9640 hn        1 MOL      0.185544
    101 H42        -3.7260   -3.8160   -3.3370 h1        1 MOL      0.115893
    102 H43        -3.1620   -1.7320   -4.7230 hc        1 MOL      0.001715
    103 H44        -0.7100   -2.2460   -4.6260 hc        1 MOL      0.072162
    104 H45        -0.9400   -3.2080   -3.1560 hc        1 MOL      0.072162
    105 H46        -1.7260   -3.7150   -4.5970 hc        1 MOL      0.072162
    106 H47        -1.7610   -0.7840   -2.2100 hc        1 MOL      0.072162
    107 H48        -1.6010   -0.1180   -3.7900 hc        1 MOL      0.072162
    108 H49        -3.2590   -0.1190   -2.8850 hc        1 MOL      0.072162
    109 N10        -5.8120   -2.1090   -1.8340 n         1 MOL     -0.267461
    110 C35        -7.0280   -1.3710   -1.7630 c3        1 MOL     -0.002579
    111 C36        -6.9170    0.0760   -1.2350 c         1 MOL      0.670518
    112 O17        -7.7910    0.8770   -1.4600 o         1 MOL     -0.588439
    113 C37        -8.0130   -2.1920   -0.8690 c3        1 MOL     -0.299838
    114 C38        -8.4940   -3.5440   -1.3250 c         1 MOL      0.754007
    115 N11        -8.9610   -3.7730   -2.5010 n         1 MOL     -0.836853
    116 O18        -8.5200   -4.4310   -0.5030 o         1 MOL     -0.592977
    117 H50        -5.3690   -2.4320   -0.9920 hn        1 MOL      0.181973
    118 H51        -7.5550   -1.3030   -2.7090 h1        1 MOL      0.044386
    119 H52        -8.9810   -1.6900   -0.7860 hc        1 MOL      0.121132
    120 H53        -7.5410   -2.3020    0.1040 hc        1 MOL      0.121132
    121 H54        -8.7390   -3.1340   -3.2510 hn        1 MOL      0.381053
    122 H55        -9.5360   -4.5760   -2.7280 hn        1 MOL      0.381053
    123 N12        -5.8670    0.4180   -0.5350 n         1 MOL     -0.515936
    124 C39        -5.8620    1.6390    0.3630 c3        1 MOL      0.233756
    125 C40        -4.5430    2.4360    0.3530 c         1 MOL      0.376697
    126 O19        -3.4320    1.9150    0.3470 o         1 MOL     -0.462941
    127 C41        -6.3500    1.2800    1.7990 c3        1 MOL      0.073589
    128 C42        -7.7280    0.5740    1.9290 ca        1 MOL     -0.153416
    129 C43        -8.8760    1.2850    1.4580 ca        1 MOL     -0.043084
    130 C44        -7.8330   -0.7580    2.2370 ca        1 MOL     -0.043084
    131 C45       -10.1520    0.7890    1.6760 ca        1 MOL     -0.317173
    132 C46        -9.0510   -1.4520    2.1170 ca        1 MOL     -0.317173
    133 C47       -10.2540   -0.6210    1.8350 ca        1 MOL      0.400307
    134 O20       -11.5070   -1.1320    1.7900 oh        1 MOL     -0.545841
    135 H56        -5.1070   -0.2240   -0.3610 hn        1 MOL      0.252572
    136 H57        -6.5990    2.3750    0.0580 h1        1 MOL      0.009272
    137 H58        -6.3970    2.1210    2.4860 hc        1 MOL      0.023855
    138 H59        -5.6130    0.6510    2.2860 hc        1 MOL      0.023855
    139 H60        -8.6810    2.3100    1.1800 ha        1 MOL      0.112622
    140 H61        -6.9500   -1.2970    2.5450 ha        1 MOL      0.112622
    141 H62       -10.9920    1.4090    1.3980 ha        1 MOL      0.144816
    142 H63        -9.0670   -2.4800    2.4280 ha        1 MOL      0.144816
    143 H64       -12.2110   -0.5210    1.5700 ho        1 MOL      0.391139
    144 N13        -4.6770    3.7080    0.7190 n         1 MOL     -0.524702
    145 C48        -3.6830    4.6930    0.9630 c3        1 MOL      0.103049
    146 C49        -2.5110    4.9860   -0.0160 c         1 MOL      0.274118
    147 O21        -1.8960    6.0220    0.1990 o         1 MOL     -0.437754
    148 C50        -3.2110    4.5250    2.4080 c3        1 MOL     -0.152742
    149 C51        -3.9880    5.1290    3.5880 c3        1 MOL     -0.118768
    150 C52        -3.9170    6.6590    3.6510 c         1 MOL      0.699449
    151 O22        -2.7960    7.2080    3.7940 o         1 MOL     -0.730760
    152 O23        -4.9920    7.3270    3.5970 o         1 MOL     -0.730760
    153 H65        -5.5590    4.1880    0.8480 hn        1 MOL      0.336552
    154 H66        -4.1750    5.6580    0.8850 h1        1 MOL      0.075863
    155 H67        -2.1610    4.8340    2.4560 hc        1 MOL      0.106886
    156 H68        -3.1690    3.4640    2.6510 hc        1 MOL      0.106886
    157 H69        -3.5990    4.6870    4.5030 hc        1 MOL     -0.016078
    158 H70        -5.0340    4.9260    3.3690 hc        1 MOL     -0.016078
    159 N14        -2.0770    4.0260   -0.8520 n         1 MOL      0.031390
    160 C53        -0.9890    4.1710   -1.7520 c3        1 MOL     -0.478194
    161 C54        -1.3110    5.0830   -3.0260 c         1 MOL      0.499597
    162 O24        -0.4430    5.7330   -3.6340 o         1 MOL     -0.515383
    163 C55        -0.3990    2.8020   -2.2920 c3        1 MOL      0.032870
    164 C56        -0.1280    1.7670   -1.1620 c3        1 MOL     -0.039657
    165 C57         0.8340    2.2610   -0.0850 c         1 MOL      0.531252
    166 O25         2.0660    2.0330   -0.2520 o         1 MOL     -0.610330
    167 O26         0.3880    2.7790    0.9420 o         1 MOL     -0.610330
    168 H71        -2.5130    3.1150   -0.7560 hn        1 MOL      0.146355
    169 H72        -0.0940    4.6260   -1.3360 h1        1 MOL      0.234762
    170 H73         0.5790    2.8760   -2.7540 hc        1 MOL      0.034802
    171 H74        -1.0550    2.3100   -3.0090 hc        1 MOL      0.034802
    172 H75         0.0630    0.7750   -1.5840 hc        1 MOL      0.006744
    173 H76        -1.0660    1.5390   -0.6550 hc        1 MOL      0.006744
    174 N15        -2.6340    5.2710   -3.2590 n         1 MOL     -0.184746
    175 C58        -3.2860    5.9730   -4.3900 c3        1 MOL     -0.260514
    176 H77        -2.9320    7.0040   -4.4280 h1        1 MOL      0.100925
    177 H78        -3.0370    5.4700   -5.3240 h1        1 MOL      0.100925
    178 H79        -4.3670    5.9650   -4.2490 h1        1 MOL      0.100925
    179 H80        -3.3500    4.9370   -2.6310 hn        1 MOL      0.193635
    180 Ca1         4.4530    2.2570    0.7550 Ca        1 MOL      1.773755
    181 O27         6.5020    1.1420    2.1570 oh        1 MOL     -0.830606
    182 H81         7.0230    0.3530    2.3380 ho        1 MOL      0.403072
    183 H82         7.1360    1.8560    2.1770 ho        1 MOL      0.403072
    184 O28         2.5590    2.2100    2.5960 oh        1 MOL     -0.830606
    185 H83         2.3620    2.4720    3.4880 ho        1 MOL      0.403072
    186 H84         1.7600    2.3990    2.0970 ho        1 MOL      0.403072
    187 O29         5.2390    3.9580    2.6950 oh        1 MOL     -0.830606
    188 H85         5.2060    4.5020    3.4860 ho        1 MOL      0.403072
    189 H86         6.0150    4.2710    2.2240 ho        1 MOL      0.403072
    190 O30         3.6810    4.8720    0.4400 oh        1 MOL     -0.830606
    191 H87         2.9150    5.1710    0.9260 ho        1 MOL      0.403072
    192 H88         3.6850    5.4060   -0.3550 ho        1 MOL      0.403072
@<TRIPOS>BOND
     1    1    2 1   
     2    1    4 1   
     3    1    5 1   
     4    1    6 1   
     5    2    3 2   
     6    2    7 1   
     7    7    8 1   
     8    7   15 1   
     9    8    9 1   
    10    8   11 1   
    11    8   16 1   
    12    9   10 2   
    13    9   19 1   
    14   11   12 1   
    15   11   17 1   
    16   11   18 1   
    17   12   13 1   
    18   12   14 1   
    19   19   20 1   
    20   19   27 1   
    21   20   21 1   
    22   20   23 1   
    23   20   28 1   
    24   21   22 2   
    25   21   38 1   
    26   23   24 1   
    27   23   25 1   
    28   23   29 1   
    29   24   26 1   
    30   24   30 1   
    31   24   31 1   
    32   25   32 1   
    33   25   33 1   
    34   25   34 1   
    35   26   35 1   
    36   26   36 1   
    37   26   37 1   
    38   38   39 1   
    39   38   46 1   
    40   39   40 1   
    41   39   42 1   
    42   39   47 1   
    43   40   41 2   
    44   40   50 1   
    45   42   43 1   
    46   42   48 1   
    47   42   49 1   
    48   43   44 1   
    49   43   45 1   
    50   50   51 1   
    51   50   54 1   
    52   51   52 1   
    53   51   55 1   
    54   51   56 1   
    55   52   53 2   
    56   52   57 1   
    57   57   58 1   
    58   57   65 1   
    59   58   59 1   
    60   58   61 1   
    61   58   66 1   
    62   59   60 2   
    63   59   69 1   
    64   61   62 1   
    65   61   67 1   
    66   61   68 1   
    67   62   63 1   
    68   62   64 1   
    69   69   70 1   
    70   69   73 1   
    71   70   71 1   
    72   70   74 1   
    73   70   75 1   
    74   71   72 2   
    75   71   76 1   
    76   76   77 1   
    77   76   85 1   
    78   77   78 1   
    79   77   80 1   
    80   77   86 1   
    81   78   79 2   
    82   78   93 1   
    83   80   81 1   
    84   80   87 1   
    85   80   88 1   
    86   81   82 1   
    87   81   89 1   
    88   81   90 1   
    89   82   83 1   
    90   82   84 2   
    91   83   91 1   
    92   83   92 1   
    93   93   94 1   
    94   93  100 1   
    95   94   95 1   
    96   94   97 1   
    97   94  101 1   
    98   95   96 2   
    99   95  109 1   
   100   97   98 1   
   101   97   99 1   
   102   97  102 1   
   103   98  103 1   
   104   98  104 1   
   105   98  105 1   
   106   99  106 1   
   107   99  107 1   
   108   99  108 1   
   109  109  110 1   
   110  109  117 1   
   111  110  111 1   
   112  110  113 1   
   113  110  118 1   
   114  111  112 2   
   115  111  123 1   
   116  113  114 1   
   117  113  119 1   
   118  113  120 1   
   119  114  115 1   
   120  114  116 2   
   121  115  121 1   
   122  115  122 1   
   123  123  124 1   
   124  123  135 1   
   125  124  125 1   
   126  124  127 1   
   127  124  136 1   
   128  125  126 2   
   129  125  144 1   
   130  127  128 1   
   131  127  137 1   
   132  127  138 1   
   133  128  129 ar  
   134  128  130 ar  
   135  129  131 ar  
   136  129  139 1   
   137  130  132 ar  
   138  130  140 1   
   139  131  133 ar  
   140  131  141 1   
   141  132  133 ar  
   142  132  142 1   
   143  133  134 1   
   144  134  143 1   
   145  144  145 1   
   146  144  153 1   
   147  145  146 1   
   148  145  148 1   
   149  145  154 1   
   150  146  147 2   
   151  146  159 1   
   152  148  149 1   
   153  148  155 1   
   154  148  156 1   
   155  149  150 1   
   156  149  157 1   
   157  149  158 1   
   158  150  151 1   
   159  150  152 1   
   160  159  160 1   
   161  159  168 1   
   162  160  161 1   
   163  160  163 1   
   164  160  169 1   
   165  161  162 2   
   166  161  174 1   
   167  163  164 1   
   168  163  170 1   
   169  163  171 1   
   170  164  165 1   
   171  164  172 1   
   172  164  173 1   
   173  165  166 1   
   174  165  167 1   
   175  174  175 1   
   176  174  179 1   
   177  175  176 1   
   178  175  177 1   
   179  175  178 1   
   180  181  182 1   
   181  181  183 1   
   182  184  185 1   
   183  184  186 1   
   184  187  188 1   
   185  187  189 1   
   186  190  191 1   
   187  190  192 1   
@<TRIPOS>SUBSTRUCTURE
     1 MOL         1 TEMP              0 ****  ****    0 ROOT
