@<TRIPOS>MOLECULE
MOL
  192   187     1     0     0
SMALL
resp


@<TRIPOS>ATOM
      1 C1         10.1300    0.6360    1.6300 c3        1 MOL     -0.678464
      2 C2          8.8350    0.2560    0.8580 c         1 MOL      0.851803
      3 O1          7.9440   -0.1710    1.5320 o         1 MOL     -0.642011
      4 H1          9.9890    1.5970    2.1250 hc        1 MOL      0.170973
      5 H2         10.3460   -0.1280    2.3770 hc        1 MOL      0.170973
      6 H3         10.9630    0.7080    0.9310 hc        1 MOL      0.170973
      7 N1          8.9140    0.1800   -0.4740 n         1 MOL     -0.689556
      8 C3          7.7860   -0.0930   -1.4000 c3        1 MOL      0.192019
      9 C4          7.2730   -1.5740   -1.4090 c         1 MOL      0.436959
     10 O2          7.1940   -2.2020   -2.4420 o         1 MOL     -0.493907
     11 C5          8.2020    0.3150   -2.7980 c3        1 MOL     -0.217610
     12 C6          8.7200    1.7050   -2.9390 c         1 MOL      0.686452
     13 O3          9.6520    1.9240   -3.7900 o         1 MOL     -0.658810
     14 O4          8.2350    2.6440   -2.2340 o         1 MOL     -0.658810
     15 H4          9.7230    0.6110   -0.8930 hn        1 MOL      0.354685
     16 H5          6.9920    0.5850   -1.0780 h1        1 MOL     -0.003305
     17 H6          7.3990    0.2320   -3.5360 hc        1 MOL      0.074581
     18 H7          8.9690   -0.3680   -3.1630 hc        1 MOL      0.074581
     19 N2          6.8480   -2.0090   -0.2070 n         1 MOL     -0.172001
     20 C7          6.4860   -3.4320   -0.0060 c3        1 MOL      0.240596
     21 C8          5.0530   -3.8220   -0.3720 c         1 MOL      0.490778
     22 O5          4.7530   -4.7580   -1.0790 o         1 MOL     -0.552579
     23 C9          6.8200   -3.8650    1.4410 c3        1 MOL     -0.322430
     24 C10         8.2920   -4.0050    1.5740 c3        1 MOL      0.145219
     25 C11         8.7290   -4.1830    3.0110 c3        1 MOL     -0.000910
     26 C12        10.1510   -4.1790    3.3670 c3        1 MOL      0.224563
     27 N3         10.3170   -4.5170    4.7990 n4        1 MOL     -0.409934
     28 H8          7.1580   -1.4690    0.5820 hn        1 MOL      0.168694
     29 H9          7.1060   -4.0270   -0.6660 h1        1 MOL     -0.020696
     30 H10         6.3570   -4.8550    1.5140 hc        1 MOL      0.081958
     31 H11         6.3740   -3.1970    2.1710 hc        1 MOL      0.081958
     32 H12         8.8230   -3.1690    1.1290 hc        1 MOL     -0.006764
     33 H13         8.5890   -4.9340    1.0980 hc        1 MOL     -0.006764
     34 H14         8.3900   -5.1570    3.3730 hc        1 MOL      0.006182
     35 H15         8.2730   -3.3780    3.5960 hc        1 MOL      0.006182
     36 H16        10.6000   -3.2090    3.1440 hx        1 MOL      0.013030
     37 H17        10.7130   -4.7860    2.6620 hx        1 MOL      0.013030
     38 H18        10.0680   -5.4790    4.9990 hn        1 MOL      0.282209
     39 H19        11.3020   -4.5030    5.0420 hn        1 MOL      0.282209
     40 H20         9.9360   -3.8190    5.4180 hn        1 MOL      0.282209
     41 N4          3.9940   -3.1450    0.0160 n         1 MOL     -0.429924
     42 C13         4.0140   -1.9130    0.7570 c3        1 MOL      0.061838
     43 C14         3.8890   -0.7040   -0.1870 c         1 MOL      0.321449
     44 O6          3.5180   -0.8650   -1.3430 o         1 MOL     -0.410020
     45 C15         2.8460   -1.8440    1.7660 c3        1 MOL     -0.325739
     46 C16         1.5060   -2.0880    1.0440 c         1 MOL      0.830360
     47 O7          0.9700   -1.2000    0.3630 o         1 MOL     -0.714356
     48 O8          0.9830   -3.2220    1.2340 o         1 MOL     -0.714356
     49 H21         3.1060   -3.5120   -0.2880 hn        1 MOL      0.353049
     50 H22         4.9290   -1.8290    1.3510 h1        1 MOL      0.072806
     51 H23         2.7010   -0.8780    2.2520 hc        1 MOL      0.061292
     52 H24         3.0220   -2.5580    2.5640 hc        1 MOL      0.061292
     53 N5          4.2500    0.4620    0.3250 n         1 MOL     -0.398416
     54 C17         4.3850    1.7250   -0.3910 c3        1 MOL      0.042034
     55 C18         3.0330    2.4260   -0.7370 c         1 MOL      0.457855
     56 O9          2.0000    1.9020   -0.3450 o         1 MOL     -0.494113
     57 H25         4.3360    0.5040    1.3270 hn        1 MOL      0.287194
     58 H26         4.9020    1.5770   -1.3400 h1        1 MOL      0.093739
     59 H27         5.0710    2.3620    0.1770 h1        1 MOL      0.093739
     60 N6          3.1330    3.5380   -1.5010 n         1 MOL     -0.629978
     61 C19         2.0400    4.3810   -2.0460 c3        1 MOL      0.436135
     62 C20         2.3330    5.9100   -1.8430 c         1 MOL      0.482778
     63 O10         3.4620    6.3810   -1.6340 o         1 MOL     -0.532466
     64 C21         1.7740    3.8410   -3.4970 c3        1 MOL     -0.556514
     65 C22         1.3670    2.3800   -3.5610 c         1 MOL      0.841412
     66 O11         1.9410    1.5450   -4.3390 o         1 MOL     -0.676399
     67 O12         0.3580    2.0560   -2.8840 o         1 MOL     -0.676399
     68 H28         4.0670    3.7980   -1.8070 hn        1 MOL      0.332476
     69 H29         1.1810    4.0810   -1.4390 h1        1 MOL     -0.013550
     70 H30         2.6680    3.9850   -4.1070 hc        1 MOL      0.127673
     71 H31         1.0530    4.4920   -4.0070 hc        1 MOL      0.127673
     72 N7          1.3890    6.8640   -1.9140 n         1 MOL     -0.474749
     73 C23        -0.0570    6.6300   -2.0940 c3        1 MOL      0.071658
     74 C24        -0.8190    6.2650   -0.7470 c         1 MOL      0.589696
     75 O13        -0.4000    6.6700    0.3440 o         1 MOL     -0.527035
     76 H32         1.7020    7.8150   -1.7230 hn        1 MOL      0.326142
     77 H33        -0.2290    5.8570   -2.8460 h1        1 MOL      0.031701
     78 H34        -0.5200    7.4680   -2.6070 h1        1 MOL      0.031701
     79 N8         -1.9230    5.5370   -0.8450 n         1 MOL     -0.760522
     80 C25        -2.6510    4.9350    0.2720 c3        1 MOL      0.375786
     81 C26        -1.8330    3.7540    0.8090 c         1 MOL      0.810860
     82 O14        -1.2300    2.9850    0.0470 o         1 MOL     -0.713791
     83 C27        -4.1270    4.6360    0.0530 c3        1 MOL      0.267554
     84 C28        -4.8770    4.5150    1.3550 c3        1 MOL     -0.430126
     85 O15        -4.4430    3.5960   -0.7710 oh        1 MOL     -0.609595
     86 H35        -2.3260    5.4240   -1.7730 hn        1 MOL      0.347361
     87 H36        -2.6910    5.6800    1.0700 h1        1 MOL     -0.018452
     88 H37        -4.5350    5.5650   -0.3520 h1        1 MOL      0.013030
     89 H38        -5.4030    3.5710   -0.8000 ho        1 MOL      0.406569
     90 H39        -5.7610    3.8890    1.2310 hc        1 MOL      0.106800
     91 H40        -4.2640    4.0520    2.1220 hc        1 MOL      0.106800
     92 H41        -5.1580    5.5280    1.6500 hc        1 MOL      0.106800
     93 N9         -1.7080    3.6050    2.0960 n         1 MOL     -0.499455
     94 C29        -1.0490    2.5320    2.9620 c3        1 MOL     -0.211893
     95 C30        -1.5350    1.0710    2.7260 c         1 MOL      0.443770
     96 O16        -1.1200    0.4350    1.7420 o         1 MOL     -0.555454
     97 C31         0.5330    2.5470    2.9430 c3        1 MOL      0.354416
     98 C32         1.1510    3.9390    3.0570 c3        1 MOL      0.094476
     99 C33         1.0750    1.6470    4.0040 c3        1 MOL     -0.596144
    100 C34         2.5540    4.0030    2.3290 c3        1 MOL      0.032787
    101 H42        -2.0480    4.3890    2.6310 hn        1 MOL      0.263322
    102 H43        -1.3740    2.8000    3.9670 h1        1 MOL      0.099803
    103 H44         0.9220    2.0700    2.0420 hc        1 MOL     -0.012541
    104 H45         1.3290    4.1680    4.1050 hc        1 MOL     -0.049457
    105 H46         0.5140    4.7250    2.6430 hc        1 MOL     -0.049457
    106 H47         2.1660    1.7310    3.9530 hc        1 MOL      0.145076
    107 H48         0.6600    1.9770    4.9580 hc        1 MOL      0.145076
    108 H49         0.7570    0.6220    3.8370 hc        1 MOL      0.145076
    109 H50         3.2120    4.7420    2.8030 hc        1 MOL     -0.006960
    110 H51         3.1340    3.0790    2.3940 hc        1 MOL     -0.006960
    111 H52         2.4620    4.4760    1.3620 hc        1 MOL     -0.006960
    112 N10        -2.3270    0.4680    3.6450 n         1 MOL     -0.224874
    113 C35        -2.7870   -0.9920    3.6810 c3        1 MOL     -0.107100
    114 C36        -4.1190   -1.2430    3.0250 c         1 MOL      0.514938
    115 O17        -4.5160   -2.3880    2.8110 o         1 MOL     -0.542665
    116 C37        -2.7770   -1.5450    5.0800 c3        1 MOL      0.366743
    117 C38        -3.6550   -0.6910    6.0240 c3        1 MOL     -0.264398
    118 O18        -1.4500   -1.3430    5.6020 oh        1 MOL     -0.613786
    119 H53        -2.7350    1.0420    4.3660 hn        1 MOL      0.247484
    120 H54        -2.0770   -1.6020    3.1160 h1        1 MOL      0.125965
    121 H55        -2.9940   -2.6160    5.1460 h1        1 MOL      0.023824
    122 H56        -0.9790   -2.0700    5.1950 ho        1 MOL      0.390814
    123 H57        -4.7010   -0.9940    5.9730 hc        1 MOL      0.069592
    124 H58        -3.3200   -0.7280    7.0650 hc        1 MOL      0.069592
    125 H59        -3.5670    0.3490    5.7180 hc        1 MOL      0.069592
    126 N11        -4.9270   -0.2000    2.7090 n         1 MOL     -0.224910
    127 C39        -6.2390   -0.4040    2.1590 c3        1 MOL     -0.310429
    128 C40        -6.2060   -0.9570    0.7170 c         1 MOL      0.511542
    129 O19        -5.5480   -0.2380   -0.0810 o         1 MOL     -0.531817
    130 C41        -7.0280    0.9790    2.1170 c3        1 MOL      0.513011
    131 C42        -8.5100    0.8900    1.7070 c3        1 MOL     -0.456050
    132 O20        -7.0070    1.6260    3.4390 oh        1 MOL     -0.657507
    133 H60        -4.7340    0.7210    3.0680 hn        1 MOL      0.168042
    134 H61        -6.8130   -1.0800    2.7910 h1        1 MOL      0.107342
    135 H62        -6.5730    1.7220    1.4590 h1        1 MOL      0.006379
    136 H63        -7.2870    1.0750    4.1750 ho        1 MOL      0.400040
    137 H64        -8.9470   -0.0390    2.0550 hc        1 MOL      0.110279
    138 H65        -9.0650    1.7410    2.1040 hc        1 MOL      0.110279
    139 H66        -8.6170    0.9890    0.6230 hc        1 MOL      0.110279
    140 N12        -6.7790   -2.0940    0.4080 n         1 MOL     -0.239779
    141 C43        -7.0360   -2.5580   -0.9770 c3        1 MOL      0.012855
    142 C44        -5.8080   -2.6130   -1.8960 c         1 MOL      0.510235
    143 O21        -5.7460   -2.2420   -3.0390 o         1 MOL     -0.517137
    144 C45        -8.2340   -1.8280   -1.5550 c3        1 MOL     -0.275566
    145 C46        -9.4560   -1.9230   -0.5940 c3        1 MOL     -0.029118
    146 C47       -10.6080   -0.9650   -1.0130 c3        1 MOL      0.110703
    147 C48       -11.7010   -0.8610    0.0100 c3        1 MOL      0.055171
    148 N13       -12.6970    0.2070   -0.4230 n4        1 MOL     -0.267723
    149 H67        -7.1750   -2.6000    1.1890 hn        1 MOL      0.242385
    150 H68        -7.3380   -3.5890   -0.7910 h1        1 MOL      0.065057
    151 H69        -8.4770   -2.2170   -2.5350 hc        1 MOL      0.127247
    152 H70        -7.9660   -0.7830   -1.7180 hc        1 MOL      0.127247
    153 H71        -9.1850   -1.6820    0.4360 hc        1 MOL      0.024907
    154 H72        -9.8250   -2.9340   -0.7000 hc        1 MOL      0.024907
    155 H73       -10.9980   -1.2460   -1.9870 hc        1 MOL     -0.006470
    156 H74       -10.2340    0.0510   -1.1440 hc        1 MOL     -0.006470
    157 H75       -11.3770   -0.6810    1.0350 hx        1 MOL      0.040636
    158 H76       -12.2270   -1.8190    0.0670 hx        1 MOL      0.040636
    159 H77       -13.0390   -0.2460   -1.2570 hn        1 MOL      0.219056
    160 H78       -13.4570    0.2520    0.2490 hn        1 MOL      0.219056
    161 H79       -12.1960    1.0790   -0.5530 hn        1 MOL      0.219056
    162 N14        -4.7370   -3.0690   -1.2770 n         1 MOL     -0.435978
    163 C49        -3.4080   -3.1230   -1.9940 c3        1 MOL      0.333039
    164 C50        -2.1580   -2.8550   -1.1240 c         1 MOL      0.283799
    165 O22        -1.5590   -1.8020   -1.3380 o         1 MOL     -0.540928
    166 C51        -3.3020   -4.4640   -2.8470 c3        1 MOL     -0.137033
    167 C52        -4.4080   -4.6870   -3.8500 c3        1 MOL     -0.120244
    168 C53        -4.1790   -5.8920   -4.7350 c         1 MOL      0.672350
    169 O23        -3.5200   -5.7480   -5.8130 o         1 MOL     -0.606756
    170 O24        -4.6380   -6.9520   -4.3830 o         1 MOL     -0.606756
    171 H80        -4.7360   -3.4690   -0.3470 hn        1 MOL      0.237814
    172 H81        -3.3900   -2.3230   -2.7440 h1        1 MOL      0.074255
    173 H82        -3.3050   -5.3010   -2.1550 hc        1 MOL      0.064885
    174 H83        -2.3820   -4.4340   -3.4210 hc        1 MOL      0.064885
    175 H84        -4.5850   -3.8690   -4.5470 hc        1 MOL      0.027749
    176 H85        -5.3010   -4.9720   -3.2960 hc        1 MOL      0.027749
    177 N15        -1.7360   -3.5940   -0.0780 n         1 MOL     -0.236115
    178 C54        -2.1200   -4.9400    0.3730 c3        1 MOL     -0.033506
    179 H86        -2.6530   -5.4530   -0.4270 h1        1 MOL      0.036322
    180 H87        -1.2260   -5.5050    0.6340 h1        1 MOL      0.036322
    181 H88        -2.7680   -4.8590    1.2470 h1        1 MOL      0.036322
    182 H89        -0.9900   -3.2260    0.5010 hn        1 MOL      0.257635
    183 Ca1        -0.4020    0.4680   -0.9130 Ca        1 MOL      1.780188
    184 O25        -1.6460    0.4820   -3.3070 oh        1 MOL     -0.847829
    185 H90        -1.2340    0.9270   -4.0430 ho        1 MOL      0.396810
    186 H91        -2.5770    0.7120   -3.3740 ho        1 MOL      0.396810
    187 O26        -3.0340    0.8320   -0.8370 oh        1 MOL     -0.847829
    188 H92        -3.6120    0.1000   -0.6030 ho        1 MOL      0.396810
    189 H93        -3.5790    1.6100   -0.6950 ho        1 MOL      0.396810
    190 O27         1.2590   -0.6150   -2.7520 oh        1 MOL     -0.847829
    191 H94         2.1280   -0.6880   -2.3540 ho        1 MOL      0.396810
    192 H95         1.3730    0.0550   -3.4330 ho        1 MOL      0.396810
@<TRIPOS>BOND
     1    1    2 1   
     2    1    4 1   
     3    1    5 1   
     4    1    6 1   
     5    2    3 2   
     6    2    7 1   
     7    7    8 1   
     8    7   15 1   
     9    8    9 1   
    10    8   11 1   
    11    8   16 1   
    12    9   10 2   
    13    9   19 1   
    14   11   12 1   
    15   11   17 1   
    16   11   18 1   
    17   12   13 1   
    18   12   14 1   
    19   19   20 1   
    20   19   28 1   
    21   20   21 1   
    22   20   23 1   
    23   20   29 1   
    24   21   22 2   
    25   21   41 1   
    26   23   24 1   
    27   23   30 1   
    28   23   31 1   
    29   24   25 1   
    30   24   32 1   
    31   24   33 1   
    32   25   26 1   
    33   25   34 1   
    34   25   35 1   
    35   26   27 1   
    36   26   36 1   
    37   26   37 1   
    38   27   38 1   
    39   27   39 1   
    40   27   40 1   
    41   41   42 1   
    42   41   49 1   
    43   42   43 1   
    44   42   45 1   
    45   42   50 1   
    46   43   44 2   
    47   43   53 1   
    48   45   46 1   
    49   45   51 1   
    50   45   52 1   
    51   46   47 1   
    52   46   48 1   
    53   53   54 1   
    54   53   57 1   
    55   54   55 1   
    56   54   58 1   
    57   54   59 1   
    58   55   56 2   
    59   55   60 1   
    60   60   61 1   
    61   60   68 1   
    62   61   62 1   
    63   61   64 1   
    64   61   69 1   
    65   62   63 2   
    66   62   72 1   
    67   64   65 1   
    68   64   70 1   
    69   64   71 1   
    70   65   66 1   
    71   65   67 1   
    72   72   73 1   
    73   72   76 1   
    74   73   74 1   
    75   73   77 1   
    76   73   78 1   
    77   74   75 2   
    78   74   79 1   
    79   79   80 1   
    80   79   86 1   
    81   80   81 1   
    82   80   83 1   
    83   80   87 1   
    84   81   82 2   
    85   81   93 1   
    86   83   84 1   
    87   83   85 1   
    88   83   88 1   
    89   84   90 1   
    90   84   91 1   
    91   84   92 1   
    92   85   89 1   
    93   93   94 1   
    94   93  101 1   
    95   94   95 1   
    96   94   97 1   
    97   94  102 1   
    98   95   96 2   
    99   95  112 1   
   100   97   98 1   
   101   97   99 1   
   102   97  103 1   
   103   98  100 1   
   104   98  104 1   
   105   98  105 1   
   106   99  106 1   
   107   99  107 1   
   108   99  108 1   
   109  100  109 1   
   110  100  110 1   
   111  100  111 1   
   112  112  113 1   
   113  112  119 1   
   114  113  114 1   
   115  113  116 1   
   116  113  120 1   
   117  114  115 2   
   118  114  126 1   
   119  116  117 1   
   120  116  118 1   
   121  116  121 1   
   122  117  123 1   
   123  117  124 1   
   124  117  125 1   
   125  118  122 1   
   126  126  127 1   
   127  126  133 1   
   128  127  128 1   
   129  127  130 1   
   130  127  134 1   
   131  128  129 2   
   132  128  140 1   
   133  130  131 1   
   134  130  132 1   
   135  130  135 1   
   136  131  137 1   
   137  131  138 1   
   138  131  139 1   
   139  132  136 1   
   140  140  141 1   
   141  140  149 1   
   142  141  142 1   
   143  141  144 1   
   144  141  150 1   
   145  142  143 2   
   146  142  162 1   
   147  144  145 1   
   148  144  151 1   
   149  144  152 1   
   150  145  146 1   
   151  145  153 1   
   152  145  154 1   
   153  146  147 1   
   154  146  155 1   
   155  146  156 1   
   156  147  148 1   
   157  147  157 1   
   158  147  158 1   
   159  148  159 1   
   160  148  160 1   
   161  148  161 1   
   162  162  163 1   
   163  162  171 1   
   164  163  164 1   
   165  163  166 1   
   166  163  172 1   
   167  164  165 2   
   168  164  177 1   
   169  166  167 1   
   170  166  173 1   
   171  166  174 1   
   172  167  168 1   
   173  167  175 1   
   174  167  176 1   
   175  168  169 1   
   176  168  170 1   
   177  177  178 1   
   178  177  182 1   
   179  178  179 1   
   180  178  180 1   
   181  178  181 1   
   182  184  185 1   
   183  184  186 1   
   184  187  188 1   
   185  187  189 1   
   186  190  191 1   
   187  190  192 1   
@<TRIPOS>SUBSTRUCTURE
     1 MOL         1 TEMP              0 ****  ****    0 ROOT
