@<TRIPOS>MOLECULE
MOL
  192   187     1     0     0
SMALL
resp


@<TRIPOS>ATOM
      1 C1         -4.3620   -4.7600    3.4960 c3        1 MOL      0.067503
      2 C2         -3.2540   -4.2360    2.4900 c         1 MOL      0.565069
      3 O1         -2.6680   -3.2290    2.8280 o         1 MOL     -0.484467
      4 H1         -5.0850   -5.3690    2.9530 hc        1 MOL     -0.041630
      5 H2         -3.8920   -5.3620    4.2740 hc        1 MOL     -0.041630
      6 H3         -4.8720   -3.9110    3.9500 hc        1 MOL     -0.041630
      7 N1         -3.1280   -4.8540    1.2910 n         1 MOL     -0.460025
      8 C3         -2.3930   -4.5530    0.1080 c3        1 MOL     -0.230401
      9 C4         -0.8640   -4.2800    0.2650 c         1 MOL      0.716350
     10 O2         -0.1640   -4.3770   -0.7140 o         1 MOL     -0.580969
     11 C5         -3.0610   -3.3800   -0.7340 c3        1 MOL     -0.503702
     12 C6         -4.5730   -3.4100   -0.7970 c         1 MOL      0.557284
     13 O3         -5.1710   -4.1470   -1.6080 o         1 MOL     -0.628493
     14 O4         -5.3240   -2.7960    0.0200 o         1 MOL     -0.628493
     15 H4         -3.6840   -5.6930    1.2430 hn        1 MOL      0.285775
     16 H5         -2.5550   -5.4630   -0.4660 h1        1 MOL      0.153657
     17 H6         -2.7630   -3.4230   -1.7830 hc        1 MOL      0.235310
     18 H7         -2.8180   -2.4050   -0.3030 hc        1 MOL      0.235310
     19 N2         -0.3570   -3.9540    1.4360 n         1 MOL     -0.432934
     20 C7          1.0320   -3.6770    1.6600 c3        1 MOL     -0.135043
     21 C8          1.9600   -4.9150    1.4920 c         1 MOL      0.719160
     22 O5          1.5000   -6.0550    1.6290 o         1 MOL     -0.598417
     23 C9          1.2980   -2.9920    3.0030 c3        1 MOL      0.088216
     24 C10         1.0210   -3.8120    4.2840 c3        1 MOL     -0.012590
     25 C11         0.6540   -1.6040    3.0640 c3        1 MOL     -0.166147
     26 C12         2.0500   -3.4680    5.3840 c3        1 MOL     -0.174078
     27 H8         -0.9410   -3.8700    2.2590 hn        1 MOL      0.254605
     28 H9          1.3300   -2.9540    0.8880 h1        1 MOL      0.082195
     29 H10         2.3760   -2.8150    2.9910 hc        1 MOL      0.100912
     30 H11         1.1620   -4.8770    4.1160 hc        1 MOL      0.024936
     31 H12         0.0090   -3.6650    4.6530 hc        1 MOL      0.024936
     32 H13         1.3820   -1.0360    2.4960 hc        1 MOL      0.055944
     33 H14        -0.3750   -1.6120    2.7050 hc        1 MOL      0.055944
     34 H15         0.6660   -1.2190    4.0790 hc        1 MOL      0.055944
     35 H16         1.8120   -2.5370    5.9130 hc        1 MOL      0.035146
     36 H17         2.0370   -4.2270    6.1720 hc        1 MOL      0.035146
     37 H18         3.0890   -3.3830    5.0820 hc        1 MOL      0.035146
     38 N3          3.3080   -4.8840    1.2110 n         1 MOL     -0.632029
     39 C13         4.1490   -3.6910    0.9430 c3        1 MOL     -0.011155
     40 C14         4.2270   -3.2160   -0.4870 c         1 MOL      0.551574
     41 O6          4.0460   -2.0660   -0.6820 o         1 MOL     -0.526100
     42 C15         5.5360   -3.8960    1.6160 c3        1 MOL     -0.060306
     43 C16         6.1690   -5.2840    1.4120 c         1 MOL      0.704436
     44 O7          6.0450   -5.8860    0.3130 o         1 MOL     -0.708736
     45 O8          6.7730   -5.6680    2.4030 o         1 MOL     -0.708736
     46 H19         3.7860   -5.7720    1.2710 hn        1 MOL      0.329923
     47 H20         3.6750   -2.8930    1.5100 h1        1 MOL      0.012115
     48 H21         5.3650   -3.6890    2.6750 hc        1 MOL      0.018312
     49 H22         6.2630   -3.1170    1.3670 hc        1 MOL      0.018312
     50 N4          4.3660   -4.1310   -1.4440 n         1 MOL     -0.347495
     51 C17         4.4950   -3.8600   -2.8750 c3        1 MOL     -0.006111
     52 C18         5.7650   -3.0170   -3.1240 c         1 MOL      0.370006
     53 O9          6.7960   -3.5410   -2.7450 o         1 MOL     -0.529257
     54 H23         4.5160   -5.0950   -1.1990 hn        1 MOL      0.290445
     55 H24         3.5790   -3.4400   -3.2930 h1        1 MOL      0.047335
     56 H25         4.5550   -4.7660   -3.4750 h1        1 MOL      0.047335
     57 N5          5.6920   -1.7900   -3.4910 n         1 MOL     -0.243311
     58 C19         6.7670   -0.8520   -3.6750 c3        1 MOL      0.033755
     59 C20         7.4420   -0.4890   -2.3460 c         1 MOL      0.466903
     60 O10         8.5400   -0.0200   -2.3530 o         1 MOL     -0.547181
     61 C21         6.0380    0.3310   -4.3610 c3        1 MOL     -0.185218
     62 C22         4.8850    0.9040   -3.5300 c         1 MOL      0.680461
     63 O11         5.1590    1.6910   -2.5490 o         1 MOL     -0.671370
     64 O12         3.7240    0.5510   -3.6650 o         1 MOL     -0.671370
     65 H26         4.8090   -1.4360   -3.8220 hn        1 MOL      0.213194
     66 H27         7.4620   -1.2510   -4.4180 h1        1 MOL      0.070829
     67 H28         5.4540   -0.1350   -5.1610 hc        1 MOL      0.023200
     68 H29         6.7320    1.0850   -4.7290 hc        1 MOL      0.023200
     69 N6          6.8660   -0.8500   -1.1420 n         1 MOL     -0.176011
     70 C23         7.4340   -0.5440    0.2350 c3        1 MOL     -0.197557
     71 C24         7.3710    0.8820    0.6920 c         1 MOL      0.416020
     72 O13         7.9720    1.2370    1.7060 o         1 MOL     -0.586785
     73 H30         5.9810   -1.3410   -1.1430 hn        1 MOL      0.192565
     74 H31         8.4470   -0.8980    0.4580 h1        1 MOL      0.121174
     75 H32         6.7820   -1.0710    0.9450 h1        1 MOL      0.121174
     76 N7          6.8260    1.8190   -0.0730 n         1 MOL      0.080423
     77 C25         6.7370    3.2880    0.2180 c3        1 MOL      0.042933
     78 C26         5.9240    3.6070    1.5220 c         1 MOL      0.382136
     79 O14         6.0370    4.6950    2.0380 o         1 MOL     -0.504360
     80 C27         8.1370    3.9050    0.1930 c3        1 MOL      0.091942
     81 C28         8.9530    3.6650   -1.0830 c3        1 MOL     -0.083049
     82 C29        10.2670    4.3580   -1.1390 c         1 MOL      0.573186
     83 N8         11.2930    3.7490   -1.6270 n         1 MOL     -0.739048
     84 O15        10.4110    5.4810   -0.6480 o         1 MOL     -0.585540
     85 H33         6.4010    1.4610   -0.9200 hn        1 MOL     -0.001752
     86 H34         6.1720    3.7340   -0.5980 h1        1 MOL      0.063006
     87 H35         8.6400    3.4740    1.0590 hc        1 MOL     -0.009543
     88 H36         8.0160    4.9820    0.2840 hc        1 MOL     -0.009543
     89 H37         8.2880    3.9550   -1.9000 hc        1 MOL      0.026372
     90 H38         9.0130    2.6130   -1.3480 hc        1 MOL      0.026372
     91 H39        11.1680    2.8030   -1.9750 hn        1 MOL      0.345836
     92 H40        12.1770    4.2260   -1.6090 hn        1 MOL      0.345836
     93 N9          5.2190    2.5720    1.9540 n         1 MOL     -0.233841
     94 C30         4.2760    2.6010    3.1150 c3        1 MOL     -0.014899
     95 C31         2.7910    2.6540    2.7170 c         1 MOL      0.546819
     96 O16         2.0290    3.2760    3.4570 o         1 MOL     -0.555709
     97 C32         4.3420    1.4140    4.1080 c3        1 MOL      0.479361
     98 C33         4.0210    0.0630    3.6480 c3        1 MOL     -0.347967
     99 C34         5.6490    1.3470    4.7160 c3        1 MOL     -0.347967
    100 H41         5.1820    1.8840    1.2030 hn        1 MOL      0.127778
    101 H42         4.4610    3.5120    3.6860 h1        1 MOL      0.059160
    102 H43         3.6370    1.6850    4.8870 hc        1 MOL     -0.104214
    103 H44         4.0090   -0.7370    4.3950 hc        1 MOL      0.063534
    104 H45         3.0160    0.0900    3.2150 hc        1 MOL      0.063534
    105 H46         4.7560   -0.2420    2.9070 hc        1 MOL      0.063534
    106 H47         5.6160    0.5330    5.4370 hc        1 MOL      0.063534
    107 H48         6.3980    1.1340    3.9550 hc        1 MOL      0.063534
    108 H49         5.8240    2.3280    5.1510 hc        1 MOL      0.063534
    109 N10         2.4000    2.0150    1.6050 n         1 MOL     -0.449123
    110 C35         1.0790    1.8510    1.0270 c3        1 MOL      0.028784
    111 C36         0.5350    3.0780    0.2950 c         1 MOL      0.537478
    112 O17         1.2070    4.0500   -0.1480 o         1 MOL     -0.534003
    113 C37         1.1050    0.6150    0.0740 c3        1 MOL      0.012471
    114 C38        -0.2780    0.0310   -0.1960 c         1 MOL      0.661318
    115 N11        -0.3930   -0.6470   -1.2950 n         1 MOL     -0.588619
    116 O18        -1.2520    0.0930    0.5810 o         1 MOL     -0.624392
    117 H50         3.2150    1.7120    1.0920 hn        1 MOL      0.247097
    118 H51         0.3580    1.6550    1.8280 h1        1 MOL      0.064947
    119 H52         1.6980   -0.1690    0.5540 hc        1 MOL      0.017850
    120 H53         1.6340    0.7870   -0.8530 hc        1 MOL      0.017850
    121 H54         0.4200   -0.7130   -1.8940 hn        1 MOL      0.326115
    122 H55        -1.2920   -1.0640   -1.4930 hn        1 MOL      0.326115
    123 N12        -0.8000    3.0280    0.0930 n         1 MOL     -0.339715
    124 C39        -1.5800    4.1960   -0.3420 c3        1 MOL     -0.007237
    125 C40        -3.0400    3.8600   -0.1450 c         1 MOL      0.566133
    126 O19        -3.4850    2.7670    0.1170 o         1 MOL     -0.471219
    127 C41        -1.2700    4.5580   -1.8400 c3        1 MOL     -0.120101
    128 C42        -1.3980    3.3320   -2.7560 ca        1 MOL     -0.026827
    129 C43        -2.7230    3.0940   -3.1550 ca        1 MOL     -0.096601
    130 C44        -0.3580    2.4650   -3.1100 ca        1 MOL     -0.096601
    131 C45        -3.0680    1.9930   -3.9570 ca        1 MOL     -0.322858
    132 C46        -0.7300    1.2760   -3.7830 ca        1 MOL     -0.322858
    133 C47        -2.0570    1.0520   -4.2230 ca        1 MOL      0.355698
    134 O20        -2.3320   -0.1190   -4.7370 oh        1 MOL     -0.513251
    135 H56        -1.3130    2.1860    0.2940 hn        1 MOL      0.193811
    136 H57        -1.3610    5.1070    0.2200 h1        1 MOL      0.092129
    137 H58        -0.2850    5.0090   -1.9550 hc        1 MOL      0.062668
    138 H59        -1.9440    5.3590   -2.1400 hc        1 MOL      0.062668
    139 H60        -3.4720    3.6820   -2.6380 ha        1 MOL      0.151448
    140 H61         0.6450    2.5630   -2.7400 ha        1 MOL      0.151448
    141 H62        -4.0910    1.7480   -4.2060 ha        1 MOL      0.151273
    142 H63         0.0890    0.5930   -3.9910 ha        1 MOL      0.151273
    143 H64        -3.1580   -0.1040   -5.2190 ho        1 MOL      0.385448
    144 N13        -3.9450    4.8070   -0.1600 n         1 MOL     -0.598325
    145 C48        -5.4280    4.7370    0.0700 c3        1 MOL      0.285657
    146 C49        -6.1810    4.2780   -1.2060 c         1 MOL      0.434407
    147 O21        -6.1280    4.9560   -2.2330 o         1 MOL     -0.565715
    148 C50        -6.0660    6.0940    0.5970 c3        1 MOL     -0.186515
    149 C51        -5.5660    6.5440    1.9690 c3        1 MOL      0.039979
    150 C52        -5.9230    7.9980    2.2710 c         1 MOL      0.668002
    151 O22        -5.0950    8.8030    1.8100 o         1 MOL     -0.695256
    152 O23        -6.9390    8.2030    2.9610 o         1 MOL     -0.695256
    153 H65        -3.6260    5.7290   -0.4270 hn        1 MOL      0.321128
    154 H66        -5.6030    3.9680    0.8300 h1        1 MOL     -0.050202
    155 H67        -7.1480    6.0110    0.7190 hc        1 MOL      0.066374
    156 H68        -5.8740    6.8220   -0.1860 hc        1 MOL      0.066374
    157 H69        -4.4770    6.5190    2.0200 hc        1 MOL     -0.028698
    158 H70        -5.9470    5.9690    2.8200 hc        1 MOL     -0.028698
    159 N14        -6.9540    3.1610   -1.2300 n         1 MOL     -0.279527
    160 C53        -7.0130    2.1200   -0.1970 c3        1 MOL     -0.148623
    161 C54        -7.8490    2.4730    1.0150 c         1 MOL      0.568885
    162 O24        -8.7650    3.2310    0.8060 o         1 MOL     -0.534863
    163 C55        -7.7140    0.9130   -0.8010 c3        1 MOL     -0.097078
    164 C56        -6.6670    0.0000   -1.5260 c3        1 MOL     -0.177128
    165 C57        -7.4260   -1.0510   -2.3550 c         1 MOL      0.719181
    166 O25        -7.6210   -2.2670   -1.9650 o         1 MOL     -0.685061
    167 O26        -7.8550   -0.7480   -3.4970 o         1 MOL     -0.685061
    168 H71        -7.6900    3.1940   -1.9140 hn        1 MOL      0.273252
    169 H72        -6.0380    1.7100    0.0570 h1        1 MOL      0.122058
    170 H73        -8.5150    1.2020   -1.4880 hc        1 MOL      0.034451
    171 H74        -8.1390    0.1860   -0.1020 hc        1 MOL      0.034451
    172 H75        -6.0020   -0.4280   -0.7690 hc        1 MOL      0.055072
    173 H76        -6.0580    0.6260   -2.1780 hc        1 MOL      0.055072
    174 N15        -7.4930    1.9590    2.2230 n         1 MOL     -0.313402
    175 C58        -8.2930    2.1110    3.5190 c3        1 MOL     -0.245008
    176 H77        -9.1630    1.4540    3.4880 h1        1 MOL      0.108367
    177 H78        -7.6650    1.8410    4.3680 h1        1 MOL      0.108367
    178 H79        -8.6220    3.1450    3.6240 h1        1 MOL      0.108367
    179 H80        -6.5360    1.6350    2.2840 hn        1 MOL      0.266249
    180 Ca1        -7.5750   -4.2190   -0.4380 Ca        1 MOL      1.608001
    181 O27       -10.2670   -2.8430   -0.2850 oh        1 MOL     -0.851267
    182 H81       -10.3980   -2.4930    0.5930 ho        1 MOL      0.402858
    183 H82       -11.0340   -3.4020   -0.4410 ho        1 MOL      0.402858
    184 O28        -8.1140   -2.7570    1.6560 oh        1 MOL     -0.851267
    185 H83        -7.4190   -2.1540    1.9040 ho        1 MOL      0.402858
    186 H84        -8.9240   -2.3180    1.9320 ho        1 MOL      0.402858
    187 O29        -6.1450   -6.6350   -1.1920 oh        1 MOL     -0.851267
    188 H85        -5.4290   -6.0060   -1.2820 ho        1 MOL      0.402858
    189 H86        -5.7570   -7.3890   -0.7390 ho        1 MOL      0.402858
    190 O30        -8.1540   -5.0840   -2.8970 oh        1 MOL     -0.851267
    191 H87        -8.2540   -4.3530   -3.5000 ho        1 MOL      0.402858
    192 H88        -8.6000   -5.8160   -3.3250 ho        1 MOL      0.402858
@<TRIPOS>BOND
     1    1    2 1   
     2    1    4 1   
     3    1    5 1   
     4    1    6 1   
     5    2    3 2   
     6    2    7 1   
     7    7    8 1   
     8    7   15 1   
     9    8    9 1   
    10    8   11 1   
    11    8   16 1   
    12    9   10 2   
    13    9   19 1   
    14   11   12 1   
    15   11   17 1   
    16   11   18 1   
    17   12   13 1   
    18   12   14 1   
    19   19   20 1   
    20   19   27 1   
    21   20   21 1   
    22   20   23 1   
    23   20   28 1   
    24   21   22 2   
    25   21   38 1   
    26   23   24 1   
    27   23   25 1   
    28   23   29 1   
    29   24   26 1   
    30   24   30 1   
    31   24   31 1   
    32   25   32 1   
    33   25   33 1   
    34   25   34 1   
    35   26   35 1   
    36   26   36 1   
    37   26   37 1   
    38   38   39 1   
    39   38   46 1   
    40   39   40 1   
    41   39   42 1   
    42   39   47 1   
    43   40   41 2   
    44   40   50 1   
    45   42   43 1   
    46   42   48 1   
    47   42   49 1   
    48   43   44 1   
    49   43   45 1   
    50   50   51 1   
    51   50   54 1   
    52   51   52 1   
    53   51   55 1   
    54   51   56 1   
    55   52   53 2   
    56   52   57 1   
    57   57   58 1   
    58   57   65 1   
    59   58   59 1   
    60   58   61 1   
    61   58   66 1   
    62   59   60 2   
    63   59   69 1   
    64   61   62 1   
    65   61   67 1   
    66   61   68 1   
    67   62   63 1   
    68   62   64 1   
    69   69   70 1   
    70   69   73 1   
    71   70   71 1   
    72   70   74 1   
    73   70   75 1   
    74   71   72 2   
    75   71   76 1   
    76   76   77 1   
    77   76   85 1   
    78   77   78 1   
    79   77   80 1   
    80   77   86 1   
    81   78   79 2   
    82   78   93 1   
    83   80   81 1   
    84   80   87 1   
    85   80   88 1   
    86   81   82 1   
    87   81   89 1   
    88   81   90 1   
    89   82   83 1   
    90   82   84 2   
    91   83   91 1   
    92   83   92 1   
    93   93   94 1   
    94   93  100 1   
    95   94   95 1   
    96   94   97 1   
    97   94  101 1   
    98   95   96 2   
    99   95  109 1   
   100   97   98 1   
   101   97   99 1   
   102   97  102 1   
   103   98  103 1   
   104   98  104 1   
   105   98  105 1   
   106   99  106 1   
   107   99  107 1   
   108   99  108 1   
   109  109  110 1   
   110  109  117 1   
   111  110  111 1   
   112  110  113 1   
   113  110  118 1   
   114  111  112 2   
   115  111  123 1   
   116  113  114 1   
   117  113  119 1   
   118  113  120 1   
   119  114  115 1   
   120  114  116 2   
   121  115  121 1   
   122  115  122 1   
   123  123  124 1   
   124  123  135 1   
   125  124  125 1   
   126  124  127 1   
   127  124  136 1   
   128  125  126 2   
   129  125  144 1   
   130  127  128 1   
   131  127  137 1   
   132  127  138 1   
   133  128  129 ar  
   134  128  130 ar  
   135  129  131 ar  
   136  129  139 1   
   137  130  132 ar  
   138  130  140 1   
   139  131  133 ar  
   140  131  141 1   
   141  132  133 ar  
   142  132  142 1   
   143  133  134 1   
   144  134  143 1   
   145  144  145 1   
   146  144  153 1   
   147  145  146 1   
   148  145  148 1   
   149  145  154 1   
   150  146  147 2   
   151  146  159 1   
   152  148  149 1   
   153  148  155 1   
   154  148  156 1   
   155  149  150 1   
   156  149  157 1   
   157  149  158 1   
   158  150  151 1   
   159  150  152 1   
   160  159  160 1   
   161  159  168 1   
   162  160  161 1   
   163  160  163 1   
   164  160  169 1   
   165  161  162 2   
   166  161  174 1   
   167  163  164 1   
   168  163  170 1   
   169  163  171 1   
   170  164  165 1   
   171  164  172 1   
   172  164  173 1   
   173  165  166 1   
   174  165  167 1   
   175  174  175 1   
   176  174  179 1   
   177  175  176 1   
   178  175  177 1   
   179  175  178 1   
   180  181  182 1   
   181  181  183 1   
   182  184  185 1   
   183  184  186 1   
   184  187  188 1   
   185  187  189 1   
   186  190  191 1   
   187  190  192 1   
@<TRIPOS>SUBSTRUCTURE
     1 MOL         1 TEMP              0 ****  ****    0 ROOT
