@<TRIPOS>MOLECULE
MOL
  178   175     1     0     0
SMALL
resp


@<TRIPOS>ATOM
      1 C1          4.3000   -1.6350    4.3230 c3        1 MOL     -0.261474
      2 C2          5.3200   -0.6160    3.9080 c         1 MOL      0.651560
      3 O1          5.4150    0.5510    4.3030 o         1 MOL     -0.583350
      4 H1          3.3950   -1.5030    3.7300 hc        1 MOL      0.064154
      5 H2          4.6990   -2.6360    4.1580 hc        1 MOL      0.064154
      6 H3          4.0650   -1.5050    5.3790 hc        1 MOL      0.064154
      7 N1          6.1830   -1.1150    2.9800 n         1 MOL     -0.774094
      8 C3          7.2580   -0.2360    2.4940 c3        1 MOL      0.606360
      9 C4          7.0390    0.1910    1.0730 c         1 MOL      0.372606
     10 O2          6.3690   -0.5160    0.2610 o         1 MOL     -0.520299
     11 C5          8.5770   -0.8170    2.8900 c3        1 MOL     -0.241562
     12 C6          9.8330   -0.0930    2.2890 c         1 MOL      0.734775
     13 O3          9.9130    1.1560    2.2760 o         1 MOL     -0.725304
     14 O4         10.8480   -0.7950    1.9070 o         1 MOL     -0.725304
     15 H4          6.0490   -2.0780    2.7190 hn        1 MOL      0.381403
     16 H5          7.2710    0.6680    3.1060 h1        1 MOL     -0.019281
     17 H6          8.5730   -1.8690    2.6110 hc        1 MOL     -0.008091
     18 H7          8.7090   -0.7230    3.9660 hc        1 MOL     -0.008091
     19 N2          7.5130    1.3440    0.6430 n         1 MOL     -0.633224
     20 C7          7.3220    1.9410   -0.6910 c3        1 MOL      0.532189
     21 C8          5.9300    2.6420   -1.0000 c         1 MOL      0.511099
     22 O5          5.1330    2.7340   -0.0590 o         1 MOL     -0.564135
     23 C9          8.4910    2.8090   -0.9510 c3        1 MOL     -0.437974
     24 H8          8.2530    1.7460    1.2030 hn        1 MOL      0.306632
     25 H9          7.3830    1.1620   -1.4480 h1        1 MOL      0.001368
     26 H10         8.4870    3.6780   -0.2890 hc        1 MOL      0.099360
     27 H11         9.4390    2.2790   -0.8550 hc        1 MOL      0.099360
     28 H12         8.3900    3.0460   -2.0030 hc        1 MOL      0.099360
     29 N3          5.5270    2.9400   -2.2330 n         1 MOL     -0.614438
     30 C10         4.1050    3.0770   -2.6150 c3        1 MOL      0.011532
     31 C11         3.7270    4.4660   -3.1710 c         1 MOL      0.799904
     32 O6          4.5970    5.2780   -3.4850 o         1 MOL     -0.590986
     33 C12         3.7140    2.0120   -3.6240 c3        1 MOL     -0.139638
     34 C13         4.2630    0.6200   -3.2470 c         1 MOL      0.697569
     35 O7          3.7960    0.1910   -2.2040 o         1 MOL     -0.705706
     36 O8          5.0970   -0.0370   -3.9280 o         1 MOL     -0.705706
     37 H13         6.1910    3.0730   -2.9920 hn        1 MOL      0.333746
     38 H14         3.4630    2.9770   -1.7470 h1        1 MOL      0.082658
     39 H15         3.9560    2.2020   -4.6670 hc        1 MOL      0.011050
     40 H16         2.6250    1.9810   -3.5830 hc        1 MOL      0.011050
     41 N4          2.4200    4.7550   -3.1980 n         1 MOL     -0.567704
     42 C14         1.9640    6.0680   -3.7400 c3        1 MOL     -0.242882
     43 C15         0.4940    6.5070   -3.4910 c         1 MOL      0.694848
     44 O9          0.0860    7.5780   -3.9120 o         1 MOL     -0.596799
     45 H17         1.9340    4.2160   -2.4910 hn        1 MOL      0.301369
     46 H18         2.1280    6.1070   -4.8150 h1        1 MOL      0.131577
     47 H19         2.5110    6.8480   -3.1920 h1        1 MOL      0.131577
     48 N5         -0.2700    5.7310   -2.7910 n         1 MOL     -0.430795
     49 C16        -1.6000    6.1150   -2.2800 c3        1 MOL      0.130775
     50 C17        -1.7200    6.2620   -0.7530 c         1 MOL      0.470575
     51 O10        -0.8350    5.8000   -0.0000 o         1 MOL     -0.474169
     52 C18        -2.6070    5.0560   -2.7060 c3        1 MOL     -0.079264
     53 C19        -3.9890    5.5190   -3.0480 c         1 MOL      0.654526
     54 N6         -4.9160    4.6150   -3.3100 n         1 MOL     -0.801155
     55 O11        -4.2780    6.7600   -3.0890 o         1 MOL     -0.593841
     56 H20         0.1570    5.0160   -2.2140 hn        1 MOL      0.258302
     57 H21        -1.8480    7.0360   -2.8030 h1        1 MOL      0.046933
     58 H22        -2.6840    4.3500   -1.8690 hc        1 MOL      0.038043
     59 H23        -2.3000    4.5380   -3.6150 hc        1 MOL      0.038043
     60 H24        -4.7540    3.6440   -3.0950 hn        1 MOL      0.371432
     61 H25        -5.7900    4.9790   -3.6800 hn        1 MOL      0.371432
     62 N7         -2.8160    6.8630   -0.3020 n         1 MOL     -0.485552
     63 C20        -3.4980    6.6950    1.0320 c3        1 MOL     -0.002414
     64 C21        -4.2740    5.3520    1.0490 c         1 MOL      0.604975
     65 O12        -4.1460    4.4950    0.2030 o         1 MOL     -0.498922
     66 H26        -3.4360    7.2870   -0.9690 hn        1 MOL      0.290615
     67 H27        -4.2860    7.4450    1.1420 h1        1 MOL      0.071990
     68 H28        -2.7490    6.7590    1.8100 h1        1 MOL      0.071990
     69 N8         -4.9650    5.1270    2.1440 n         1 MOL     -0.362423
     70 C22        -5.8920    4.0410    2.4450 c3        1 MOL     -0.383843
     71 C23        -5.2730    2.7010    2.8240 c         1 MOL      0.653778
     72 O13        -5.9460    1.7770    3.2480 o         1 MOL     -0.601098
     73 C24        -6.9960    4.3850    3.5130 c3        1 MOL      0.537006
     74 C25        -6.6530    4.3790    4.9690 c3        1 MOL     -0.374205
     75 O14        -7.4830    5.6710    3.2370 oh        1 MOL     -0.620100
     76 H29        -4.9240    5.7990    2.8970 hn        1 MOL      0.214345
     77 H30        -6.4060    3.7240    1.5380 h1        1 MOL      0.160071
     78 H31        -7.9120    3.8060    3.3790 h1        1 MOL      0.032817
     79 H32        -6.7230    6.2640    3.2720 ho        1 MOL      0.350363
     80 H33        -7.4050    4.9340    5.5370 hc        1 MOL      0.094533
     81 H34        -6.5390    3.3470    5.2700 hc        1 MOL      0.094533
     82 H35        -5.6330    4.7150    5.1810 hc        1 MOL      0.094533
     83 N9         -3.9660    2.5500    2.7560 n         1 MOL     -0.432972
     84 C26        -3.3290    1.2690    3.1530 c3        1 MOL     -0.041246
     85 C27        -2.1780    0.8640    2.1690 c         1 MOL      0.693751
     86 O15        -1.4620    1.7640    1.7690 o         1 MOL     -0.536382
     87 C28        -2.8190    1.2710    4.6550 c3        1 MOL      0.232818
     88 C29        -3.8310    1.5400    5.8460 c3        1 MOL     -0.085136
     89 C30        -2.0010    0.0210    5.0300 c3        1 MOL     -0.250389
     90 C31        -5.0680    0.5900    6.0980 c3        1 MOL     -0.373675
     91 H36        -3.3450    3.2710    2.4180 hn        1 MOL      0.281329
     92 H37        -3.9940    0.4110    3.0910 h1        1 MOL      0.090269
     93 H38        -2.1020    2.0870    4.6890 hc        1 MOL     -0.039305
     94 H39        -4.2350    2.5460    5.7620 hc        1 MOL      0.032976
     95 H40        -3.1910    1.4960    6.7370 hc        1 MOL      0.032976
     96 H41        -2.6930   -0.8030    4.9110 hc        1 MOL      0.071717
     97 H42        -1.0890   -0.0470    4.4470 hc        1 MOL      0.071717
     98 H43        -1.6020    0.1110    6.0470 hc        1 MOL      0.071717
     99 H44        -5.5860    0.3850    5.1640 hc        1 MOL      0.101541
    100 H45        -4.6760   -0.2640    6.6640 hc        1 MOL      0.101541
    101 H46        -5.7810    1.0090    6.8030 hc        1 MOL      0.101541
    102 N10        -2.0780   -0.4040    1.8280 n         1 MOL     -0.792101
    103 C32        -1.1670   -0.9430    0.8000 c3        1 MOL      0.504751
    104 C33        -1.9090   -1.7490   -0.2880 c         1 MOL      0.297627
    105 O16        -1.3150   -2.6990   -0.8930 o         1 MOL     -0.418945
    106 C34        -0.1170   -1.7810    1.5190 c3        1 MOL      0.019835
    107 C35         1.2550   -1.7870    0.8540 c         1 MOL      0.631336
    108 O17         2.1910   -2.4050    1.3890 o         1 MOL     -0.721653
    109 O18         1.4510   -1.1240   -0.1900 o         1 MOL     -0.721653
    110 H47        -2.7670   -1.0830    2.1350 hn        1 MOL      0.321113
    111 H48        -0.6700   -0.0810    0.3590 h1        1 MOL      0.001940
    112 H49        -0.5860   -2.7620    1.5500 hc        1 MOL     -0.022050
    113 H50         0.0700   -1.3480    2.5020 hc        1 MOL     -0.022050
    114 N11        -3.2260   -1.5440   -0.5230 n         1 MOL     -0.404220
    115 C36        -4.0840   -2.3860   -1.3870 c3        1 MOL      0.177000
    116 C37        -3.8900   -3.8960   -1.0020 c         1 MOL      0.296750
    117 O19        -4.0340   -4.2690    0.1770 o         1 MOL     -0.522189
    118 C38        -5.5230   -1.9840   -1.1550 c3        1 MOL     -0.248487
    119 C39        -6.5360   -2.6740   -2.0890 ca        1 MOL      0.127341
    120 C40        -6.8170   -2.1420   -3.3650 ca        1 MOL     -0.221294
    121 C41        -7.0050   -3.9940   -1.7400 ca        1 MOL     -0.221294
    122 C42        -7.6190   -2.8540   -4.2530 ca        1 MOL     -0.047479
    123 C43        -7.8520   -4.7180   -2.6500 ca        1 MOL     -0.047479
    124 C44        -8.2040   -4.0680   -3.8760 ca        1 MOL     -0.191703
    125 H51        -3.6230   -0.6890   -0.1380 hn        1 MOL      0.242913
    126 H52        -3.8370   -2.1830   -2.4280 h1        1 MOL      0.054269
    127 H53        -5.6120   -0.9040   -1.3090 hc        1 MOL      0.100248
    128 H54        -5.7880   -2.0780   -0.1010 hc        1 MOL      0.100248
    129 H55        -6.4000   -1.1900   -3.6380 ha        1 MOL      0.137156
    130 H56        -6.7730   -4.4690   -0.8000 ha        1 MOL      0.137156
    131 H57        -7.7830   -2.4730   -5.2490 ha        1 MOL      0.102656
    132 H58        -8.2320   -5.7010   -2.4350 ha        1 MOL      0.102656
    133 H59        -8.8740   -4.6830   -4.4580 ha        1 MOL      0.118187
    134 N12        -3.7270   -4.8430   -1.9870 n         1 MOL      0.129667
    135 C45        -3.6480   -6.2980   -1.7820 c3        1 MOL      0.140634
    136 C46        -2.6290   -6.6620   -0.7370 c         1 MOL      0.196713
    137 O20        -2.7290   -7.7810   -0.2240 o         1 MOL     -0.531430
    138 C47        -3.4190   -6.9620   -3.1050 c3        1 MOL     -0.179522
    139 C48        -2.6810   -5.7840   -3.9430 c3        1 MOL     -0.034377
    140 C49        -3.4230   -4.5720   -3.3270 c3        1 MOL     -0.249440
    141 H60        -4.6600   -6.5270   -1.4220 h1        1 MOL      0.026298
    142 H61        -2.8380   -7.8840   -3.0430 hc        1 MOL      0.074947
    143 H62        -4.3890   -7.0510   -3.5900 hc        1 MOL      0.074947
    144 H63        -1.6940   -5.6230   -3.5100 hc        1 MOL      0.056187
    145 H64        -2.7430   -5.9210   -5.0240 hc        1 MOL      0.056187
    146 H65        -2.8180   -3.6610   -3.3650 h1        1 MOL      0.070640
    147 H66        -4.3600   -4.3010   -3.8200 h1        1 MOL      0.070640
    148 N13        -1.5920   -5.8560   -0.5330 n         1 MOL      0.058662
    149 C50        -0.3610   -6.1310    0.2140 c3        1 MOL     -0.272759
    150 C51        -0.5200   -6.1110    1.7240 c         1 MOL      0.391101
    151 O21         0.4120   -6.4020    2.4520 o         1 MOL     -0.509620
    152 C52         0.7720   -5.2130   -0.1720 c3        1 MOL      0.383177
    153 C53         1.2950   -5.3200   -1.5760 c3        1 MOL     -0.458326
    154 C54         2.4750   -4.3710   -1.7710 c         1 MOL      0.881756
    155 O22         3.5940   -4.6570   -1.3790 o         1 MOL     -0.779112
    156 O23         2.3750   -3.2380   -2.2280 o         1 MOL     -0.779112
    157 H67        -1.6620   -4.9480   -0.9620 hn        1 MOL      0.163558
    158 H68        -0.0150   -7.1030   -0.1450 h1        1 MOL      0.131401
    159 H69         1.6390   -5.4000    0.4680 hc        1 MOL     -0.043810
    160 H70         0.4260   -4.2080    0.0550 hc        1 MOL     -0.043810
    161 H71         0.4780   -5.0870   -2.2670 hc        1 MOL      0.053776
    162 H72         1.6190   -6.3400   -1.7280 hc        1 MOL      0.053776
    163 N14        -1.6080   -5.5350    2.2160 n         1 MOL     -0.101236
    164 C55        -2.0100   -5.4530    3.5960 c3        1 MOL     -0.198171
    165 H73        -3.0980   -5.4580    3.6560 h1        1 MOL      0.072668
    166 H74        -1.6120   -6.3080    4.1430 h1        1 MOL      0.072668
    167 H75        -1.6270   -4.5310    4.0320 h1        1 MOL      0.072668
    168 H76        -2.3070   -5.1490    1.5980 hn        1 MOL      0.189762
    169 Ca1         3.9000   -1.7710   -0.4710 Ca        1 MOL      1.765698
    170 O24         5.6060   -3.1620    0.9860 oh        1 MOL     -0.873457
    171 H77         6.2790   -3.3050    0.3180 ho        1 MOL      0.424165
    172 H78         5.6920   -3.9170    1.5770 ho        1 MOL      0.424165
    173 O25         3.7060    0.7020    0.5340 oh        1 MOL     -0.873457
    174 H79         2.9520    1.0920    0.9840 ho        1 MOL      0.424165
    175 H80         4.3200    1.4280    0.4260 ho        1 MOL      0.424165
    176 O26         6.0360   -3.0010   -1.8090 oh        1 MOL     -0.873457
    177 H81         6.1240   -3.9270   -2.0650 ho        1 MOL      0.424165
    178 H82         6.6890   -2.5530   -2.3420 ho        1 MOL      0.424165
@<TRIPOS>BOND
     1    1    2 1   
     2    1    4 1   
     3    1    5 1   
     4    1    6 1   
     5    2    3 2   
     6    2    7 1   
     7    7    8 1   
     8    7   15 1   
     9    8    9 1   
    10    8   11 1   
    11    8   16 1   
    12    9   10 2   
    13    9   19 1   
    14   11   12 1   
    15   11   17 1   
    16   11   18 1   
    17   12   13 1   
    18   12   14 1   
    19   19   20 1   
    20   19   24 1   
    21   20   21 1   
    22   20   23 1   
    23   20   25 1   
    24   21   22 2   
    25   21   29 1   
    26   23   26 1   
    27   23   27 1   
    28   23   28 1   
    29   29   30 1   
    30   29   37 1   
    31   30   31 1   
    32   30   33 1   
    33   30   38 1   
    34   31   32 2   
    35   31   41 1   
    36   33   34 1   
    37   33   39 1   
    38   33   40 1   
    39   34   35 1   
    40   34   36 1   
    41   41   42 1   
    42   41   45 1   
    43   42   43 1   
    44   42   46 1   
    45   42   47 1   
    46   43   44 2   
    47   43   48 1   
    48   48   49 1   
    49   48   56 1   
    50   49   50 1   
    51   49   52 1   
    52   49   57 1   
    53   50   51 2   
    54   50   62 1   
    55   52   53 1   
    56   52   58 1   
    57   52   59 1   
    58   53   54 1   
    59   53   55 2   
    60   54   60 1   
    61   54   61 1   
    62   62   63 1   
    63   62   66 1   
    64   63   64 1   
    65   63   67 1   
    66   63   68 1   
    67   64   65 2   
    68   64   69 1   
    69   69   70 1   
    70   69   76 1   
    71   70   71 1   
    72   70   73 1   
    73   70   77 1   
    74   71   72 2   
    75   71   83 1   
    76   73   74 1   
    77   73   75 1   
    78   73   78 1   
    79   74   80 1   
    80   74   81 1   
    81   74   82 1   
    82   75   79 1   
    83   83   84 1   
    84   83   91 1   
    85   84   85 1   
    86   84   87 1   
    87   84   92 1   
    88   85   86 2   
    89   85  102 1   
    90   87   88 1   
    91   87   89 1   
    92   87   93 1   
    93   88   90 1   
    94   88   94 1   
    95   88   95 1   
    96   89   96 1   
    97   89   97 1   
    98   89   98 1   
    99   90   99 1   
   100   90  100 1   
   101   90  101 1   
   102  102  103 1   
   103  102  110 1   
   104  103  104 1   
   105  103  106 1   
   106  103  111 1   
   107  104  105 2   
   108  104  114 1   
   109  106  107 1   
   110  106  112 1   
   111  106  113 1   
   112  107  108 1   
   113  107  109 1   
   114  114  115 1   
   115  114  125 1   
   116  115  116 1   
   117  115  118 1   
   118  115  126 1   
   119  116  117 2   
   120  116  134 1   
   121  118  119 1   
   122  118  127 1   
   123  118  128 1   
   124  119  120 ar  
   125  119  121 ar  
   126  120  122 ar  
   127  120  129 1   
   128  121  123 ar  
   129  121  130 1   
   130  122  124 ar  
   131  122  131 1   
   132  123  124 ar  
   133  123  132 1   
   134  124  133 1   
   135  134  135 1   
   136  134  140 1   
   137  135  136 1   
   138  135  138 1   
   139  135  141 1   
   140  136  137 2   
   141  136  148 1   
   142  138  139 1   
   143  138  142 1   
   144  138  143 1   
   145  139  140 1   
   146  139  144 1   
   147  139  145 1   
   148  140  146 1   
   149  140  147 1   
   150  148  149 1   
   151  148  157 1   
   152  149  150 1   
   153  149  152 1   
   154  149  158 1   
   155  150  151 2   
   156  150  163 1   
   157  152  153 1   
   158  152  159 1   
   159  152  160 1   
   160  153  154 1   
   161  153  161 1   
   162  153  162 1   
   163  154  155 1   
   164  154  156 1   
   165  163  164 1   
   166  163  168 1   
   167  164  165 1   
   168  164  166 1   
   169  164  167 1   
   170  170  171 1   
   171  170  172 1   
   172  173  174 1   
   173  173  175 1   
   174  176  177 1   
   175  176  178 1   
@<TRIPOS>SUBSTRUCTURE
     1 MOL         1 TEMP              0 ****  ****    0 ROOT
