@<TRIPOS>MOLECULE
MOL
  181   177     1     0     0
SMALL
resp


@<TRIPOS>ATOM
      1 C1         -4.3440   -3.7620   -3.9820 c3        1 MOL     -0.344808
      2 C2         -5.3610   -2.6500   -3.6940 c         1 MOL      0.648611
      3 O1         -5.0800   -1.5100   -3.2480 o         1 MOL     -0.616440
      4 H1         -4.8590   -4.7220   -4.0250 hc        1 MOL      0.086203
      5 H2         -3.8540   -3.5700   -4.9350 hc        1 MOL      0.086203
      6 H3         -3.5980   -3.7870   -3.1870 hc        1 MOL      0.086203
      7 N1         -6.6360   -3.0110   -3.6910 n         1 MOL     -0.440212
      8 C3         -7.6880   -2.0150   -3.3530 c3        1 MOL      0.068859
      9 C4         -7.7930   -1.7560   -1.8270 c         1 MOL      0.700949
     10 O2         -7.7000   -2.7150   -1.1390 o         1 MOL     -0.510985
     11 C5         -9.0360   -2.4440   -3.8890 c3        1 MOL     -0.100309
     12 C6         -9.4080   -3.8700   -3.6140 c         1 MOL      0.652111
     13 O3         -8.8300   -4.8240   -4.2610 o         1 MOL     -0.703934
     14 O4        -10.3280   -4.0710   -2.7270 o         1 MOL     -0.703934
     15 H4         -6.9020   -3.9410   -4.0050 hn        1 MOL      0.248739
     16 H5         -7.3840   -1.1140   -3.9000 h1        1 MOL      0.005036
     17 H6         -9.1430   -2.3080   -4.9670 hc        1 MOL     -0.013523
     18 H7         -9.7720   -1.7770   -3.4320 hc        1 MOL     -0.013523
     19 N2         -8.2620   -0.6030   -1.2840 n         1 MOL     -0.654009
     20 C7         -8.2220   -0.3290    0.1410 c3        1 MOL      0.445638
     21 C8         -6.8480   -0.5210    0.7430 c         1 MOL      0.558992
     22 O5         -5.9210   -0.2660    0.0070 o         1 MOL     -0.538680
     23 C9         -8.6530    1.1740    0.3030 c3        1 MOL     -0.380043
     24 H8         -8.2790    0.2230   -1.8650 hn        1 MOL      0.281392
     25 H9         -8.9340   -0.9690    0.6630 h1        1 MOL     -0.030955
     26 H10        -8.2690    1.5690    1.2330 hc        1 MOL      0.084664
     27 H11        -8.3080    1.7540   -0.5560 hc        1 MOL      0.084664
     28 H12        -9.7450    1.1080    0.3060 hc        1 MOL      0.084664
     29 N3         -6.7430   -0.9690    2.0300 n         1 MOL     -0.768393
     30 C10        -5.4100   -1.3360    2.7060 c3        1 MOL      0.215967
     31 C11        -4.9110   -0.2240    3.6420 c         1 MOL      0.420094
     32 O6         -5.5790    0.1500    4.6590 o         1 MOL     -0.539481
     33 C12        -5.5390   -2.6840    3.3070 c3        1 MOL     -0.264955
     34 C13        -4.1290   -3.1970    3.6940 c         1 MOL      0.716631
     35 O7         -3.0830   -2.7830    3.1930 o         1 MOL     -0.735655
     36 O8         -4.1060   -4.2850    4.3660 o         1 MOL     -0.735655
     37 H13        -7.5660   -1.0870    2.6010 hn        1 MOL      0.352153
     38 H14        -4.6990   -1.5030    1.8950 h1        1 MOL      0.172954
     39 H15        -5.8680   -3.3470    2.5070 hc        1 MOL      0.088983
     40 H16        -6.2870   -2.6900    4.0940 hc        1 MOL      0.088983
     41 N4         -3.6870    0.2730    3.4850 n         1 MOL     -0.292339
     42 C14        -3.0020    1.3600    4.2210 c3        1 MOL      0.158181
     43 C15        -3.0910    2.8080    3.6330 c         1 MOL      0.515694
     44 O9         -3.8680    3.1100    2.7010 o         1 MOL     -0.515644
     45 H17        -3.3300    0.0920    2.5540 hn        1 MOL      0.218057
     46 H18        -1.9440    1.1590    4.4150 h1        1 MOL     -0.016211
     47 H19        -3.5440    1.3590    5.1620 h1        1 MOL     -0.016211
     48 N5         -2.2240    3.6680    4.0970 n         1 MOL     -0.385424
     49 C16        -2.1570    5.0090    3.5730 c3        1 MOL      0.024381
     50 C17        -1.7330    4.9690    2.1550 c         1 MOL      0.630565
     51 O10        -1.1990    3.9190    1.7250 o         1 MOL     -0.455793
     52 C18        -1.2070    5.7350    4.4900 c3        1 MOL     -0.457409
     53 C19        -1.8370    5.9650    5.8400 c         1 MOL      0.744771
     54 N6         -2.8860    6.7560    5.9440 n         1 MOL     -0.802404
     55 O11        -1.4280    5.4310    6.8700 o         1 MOL     -0.567659
     56 H20        -1.6600    3.3930    4.8860 hn        1 MOL      0.259161
     57 H21        -3.1760    5.3940    3.6910 h1        1 MOL      0.044009
     58 H22        -1.0210    6.7260    4.0650 hc        1 MOL      0.144930
     59 H23        -0.2250    5.2940    4.6040 hc        1 MOL      0.144930
     60 H24        -3.3040    7.1500    5.1210 hn        1 MOL      0.367949
     61 H25        -3.4010    6.8280    6.8090 hn        1 MOL      0.367949
     62 N7         -1.9390    6.0770    1.3590 n         1 MOL     -0.592953
     63 C20        -1.7080    5.9740   -0.1150 c3        1 MOL      0.018779
     64 C21        -0.4090    6.5180   -0.6910 c         1 MOL      0.531571
     65 O12         0.4470    6.9110    0.0550 o         1 MOL     -0.470326
     66 H26        -2.3060    6.9570    1.7030 hn        1 MOL      0.329729
     67 H27        -2.5600    6.4700   -0.5730 h1        1 MOL      0.077767
     68 H28        -1.7470    4.9180   -0.4110 h1        1 MOL      0.077767
     69 N8         -0.2920    6.5840   -2.0750 n         1 MOL     -0.551165
     70 C22         0.9850    6.9350   -2.7020 c3        1 MOL     -0.083760
     71 C23         1.8670    5.6520   -2.9800 c         1 MOL      0.546676
     72 O13         3.0790    5.8780   -3.2130 o         1 MOL     -0.592153
     73 C24         0.7950    7.6660   -4.0670 c3        1 MOL      0.475558
     74 C25         0.1360    6.9280   -5.1710 c3        1 MOL     -0.214901
     75 O14         0.2060    8.8820   -3.8570 oh        1 MOL     -0.647411
     76 H29        -1.1090    6.2980   -2.5990 hn        1 MOL      0.277544
     77 H30         1.5680    7.5600   -2.0310 h1        1 MOL      0.106858
     78 H31         1.8040    7.7970   -4.4630 h1        1 MOL      0.006496
     79 H32        -0.6110    8.7440   -3.3770 ho        1 MOL      0.378399
     80 H33         0.7850    6.2110   -5.6720 hc        1 MOL      0.043649
     81 H34        -0.7930    6.4900   -4.8070 hc        1 MOL      0.043649
     82 H35        -0.1070    7.5730   -6.0190 hc        1 MOL      0.043649
     83 N9          1.3060    4.4680   -3.0890 n         1 MOL     -0.313334
     84 C26         2.0730    3.2120   -3.2210 c3        1 MOL      0.029435
     85 C27         1.5850    2.1230   -2.2830 c         1 MOL      0.416788
     86 O15         0.5050    2.1850   -1.7260 o         1 MOL     -0.486181
     87 C28         2.2120    2.7920   -4.7210 c3        1 MOL      0.130483
     88 C29         0.8130    2.6620   -5.4210 c3        1 MOL      0.073324
     89 C30         3.1230    3.6860   -5.5540 c3        1 MOL     -0.482572
     90 C31        -0.0920    1.5380   -4.8990 c3        1 MOL     -0.222113
     91 H36         0.2980    4.4130   -3.1030 hn        1 MOL      0.240179
     92 H37         3.0680    3.4610   -2.8490 h1        1 MOL      0.082897
     93 H38         2.5730    1.7670   -4.7580 hc        1 MOL      0.012453
     94 H39         1.0270    2.5180   -6.4770 hc        1 MOL     -0.022557
     95 H40         0.2560    3.6010   -5.3880 hc        1 MOL     -0.022557
     96 H41         2.6010    4.5950   -5.8610 hc        1 MOL      0.126678
     97 H42         3.9470    3.9770   -4.9040 hc        1 MOL      0.126678
     98 H43         3.3940    3.2040   -6.4960 hc        1 MOL      0.126678
     99 H44        -0.4710    1.7490   -3.9010 hc        1 MOL      0.069083
    100 H45        -0.9780    1.3560   -5.5080 hc        1 MOL      0.069083
    101 H46         0.5190    0.6280   -4.8640 hc        1 MOL      0.069083
    102 N10         2.4730    1.1610   -2.0920 n         1 MOL     -0.478857
    103 C32         2.3490    0.2050   -0.9750 c3        1 MOL      0.327670
    104 C33         3.7520   -0.2350   -0.4100 c         1 MOL      0.491408
    105 O16         3.8570   -1.3900   -0.0580 o         1 MOL     -0.399112
    106 C34         1.3920   -0.8920   -1.4210 c3        1 MOL     -0.247564
    107 C35         0.6880   -1.6110   -0.1970 c         1 MOL      0.714615
    108 O17         0.9460   -1.2960    0.9750 o         1 MOL     -0.735818
    109 O18        -0.0830   -2.5490   -0.4390 o         1 MOL     -0.735818
    110 H47         3.3210    1.1460   -2.6360 hn        1 MOL      0.249334
    111 H48         1.8140    0.7220   -0.1840 h1        1 MOL      0.029217
    112 H49         1.9670   -1.5900   -2.0380 hc        1 MOL      0.055093
    113 H50         0.5640   -0.4760   -2.0010 hc        1 MOL      0.055093
    114 N11         4.7310    0.6210   -0.2300 n         1 MOL     -0.623501
    115 C36         5.9460    0.1990    0.5170 c3        1 MOL      0.409218
    116 C37         6.6550   -1.0500    0.0220 c         1 MOL      0.243778
    117 O19         6.8500   -1.0850   -1.1830 o         1 MOL     -0.479145
    118 C38         6.9390    1.4440    0.5100 c3        1 MOL     -0.336859
    119 C39         8.2030    1.0840    1.3110 ca        1 MOL      0.092999
    120 C40         8.2560    1.3140    2.7080 ca        1 MOL     -0.177438
    121 C41         9.2870    0.3900    0.7210 ca        1 MOL     -0.177438
    122 C42         9.3450    0.9120    3.5180 ca        1 MOL     -0.081006
    123 C43        10.3970   -0.0620    1.5250 ca        1 MOL     -0.081006
    124 C44        10.4470    0.2790    2.9230 ca        1 MOL     -0.177824
    125 H51         4.6280    1.6150   -0.3780 hn        1 MOL      0.297146
    126 H52         5.6110   -0.0130    1.5340 h1        1 MOL      0.000810
    127 H53         6.4610    2.2490    1.0710 hc        1 MOL      0.128643
    128 H54         7.2530    1.7810   -0.4670 hc        1 MOL      0.128643
    129 H55         7.3680    1.7730    3.1260 ha        1 MOL      0.125489
    130 H56         9.1890    0.1930   -0.3370 ha        1 MOL      0.125489
    131 H57         9.2910    1.2310    4.5480 ha        1 MOL      0.111597
    132 H58        11.2400   -0.5290    1.0410 ha        1 MOL      0.111597
    133 H59        11.2550   -0.1060    3.5260 ha        1 MOL      0.124079
    134 N12         6.8830   -2.1050    0.8800 n         1 MOL     -0.101758
    135 C45         7.4090   -3.4080    0.4420 c3        1 MOL      0.274439
    136 C46         6.6250   -4.2690   -0.6180 c         1 MOL      0.086570
    137 O20         7.1850   -5.1870   -1.2330 o         1 MOL     -0.497556
    138 C47         7.7510   -4.1240    1.7920 c3        1 MOL     -0.204439
    139 C48         7.8750   -3.0290    2.7860 c3        1 MOL      0.063946
    140 C49         6.7830   -2.0520    2.3570 c3        1 MOL     -0.032677
    141 H60         8.3550   -3.2090   -0.0580 h1        1 MOL      0.031793
    142 H61         6.8750   -4.7190    2.0260 hc        1 MOL      0.072274
    143 H62         8.7540   -4.5580    1.7600 hc        1 MOL      0.072274
    144 H63         7.7470   -3.3880    3.8100 hc        1 MOL     -0.002842
    145 H64         8.8050   -2.4750    2.6250 hc        1 MOL     -0.002842
    146 H65         5.8540   -2.5170    2.6880 h1        1 MOL      0.047773
    147 H66         6.8860   -1.0790    2.8280 h1        1 MOL      0.047773
    148 N13         5.3500   -4.0090   -0.7830 n         1 MOL      0.213290
    149 C50         4.3300   -4.7970   -1.5150 c3        1 MOL     -0.273982
    150 C51         4.2310   -4.5430   -3.0090 c         1 MOL      0.385261
    151 O21         3.6230   -5.2870   -3.8350 o         1 MOL     -0.521770
    152 C52         2.9320   -4.6600   -0.9770 c3        1 MOL      0.129964
    153 C53         2.6870   -5.3570    0.3380 c3        1 MOL     -0.055992
    154 C54         1.5230   -4.8360    1.1480 c         1 MOL      0.667154
    155 O22         0.4020   -5.2190    0.9540 o         1 MOL     -0.748321
    156 O23         1.6830   -3.9390    1.9870 o         1 MOL     -0.748321
    157 H67         5.0160   -3.1460   -0.3620 hn        1 MOL     -0.015745
    158 H68         4.6050   -5.8520   -1.4200 h1        1 MOL      0.144572
    159 H69         2.1740   -5.0490   -1.6620 hc        1 MOL      0.029807
    160 H70         2.6380   -3.6230   -0.8450 hc        1 MOL      0.029807
    161 H71         3.5980   -5.2890    0.9330 hc        1 MOL     -0.017594
    162 H72         2.5940   -6.4260    0.1410 hc        1 MOL     -0.017594
    163 N14         4.7970   -3.4050   -3.4680 n         1 MOL     -0.166206
    164 C55         4.6790   -2.8000   -4.7930 c3        1 MOL     -0.114595
    165 H73         5.6290   -2.3410   -5.0690 h1        1 MOL      0.064557
    166 H74         4.4220   -3.5670   -5.5230 h1        1 MOL      0.064557
    167 H75         3.9000   -2.0380   -4.7770 h1        1 MOL      0.064557
    168 H76         5.2900   -2.8950   -2.7500 hn        1 MOL      0.189522
    169 Ca1        -0.8710   -3.1460    1.9060 Ca        1 MOL      1.819500
    170 O24        -0.5450   -1.2570    4.1640 oh        1 MOL     -0.868141
    171 H77        -1.1830   -0.9270    4.8040 ho        1 MOL      0.422655
    172 H78         0.2910   -0.9070    4.4530 ho        1 MOL      0.422655
    173 O25        -2.1640   -0.9700    1.0140 oh        1 MOL     -0.868141
    174 H79        -2.2640   -1.1360    0.0740 ho        1 MOL      0.422655
    175 H80        -1.7410   -0.1120    1.0520 ho        1 MOL      0.422655
    176 O26        -2.7880   -4.6260    0.8870 oh        1 MOL     -0.868141
    177 H81        -2.5690   -5.4320    0.4150 ho        1 MOL      0.422655
    178 H82        -3.5240   -4.2640    0.3910 ho        1 MOL      0.422655
    179 O27        -0.8180   -5.0910    3.7340 oh        1 MOL     -0.868141
    180 H83        -1.6930   -5.4300    3.9220 ho        1 MOL      0.422655
    181 H84        -0.2340   -5.8340    3.8920 ho        1 MOL      0.422655
@<TRIPOS>BOND
     1    1    2 1   
     2    1    4 1   
     3    1    5 1   
     4    1    6 1   
     5    2    3 2   
     6    2    7 1   
     7    7    8 1   
     8    7   15 1   
     9    8    9 1   
    10    8   11 1   
    11    8   16 1   
    12    9   10 2   
    13    9   19 1   
    14   11   12 1   
    15   11   17 1   
    16   11   18 1   
    17   12   13 1   
    18   12   14 1   
    19   19   20 1   
    20   19   24 1   
    21   20   21 1   
    22   20   23 1   
    23   20   25 1   
    24   21   22 2   
    25   21   29 1   
    26   23   26 1   
    27   23   27 1   
    28   23   28 1   
    29   29   30 1   
    30   29   37 1   
    31   30   31 1   
    32   30   33 1   
    33   30   38 1   
    34   31   32 2   
    35   31   41 1   
    36   33   34 1   
    37   33   39 1   
    38   33   40 1   
    39   34   35 1   
    40   34   36 1   
    41   41   42 1   
    42   41   45 1   
    43   42   43 1   
    44   42   46 1   
    45   42   47 1   
    46   43   44 2   
    47   43   48 1   
    48   48   49 1   
    49   48   56 1   
    50   49   50 1   
    51   49   52 1   
    52   49   57 1   
    53   50   51 2   
    54   50   62 1   
    55   52   53 1   
    56   52   58 1   
    57   52   59 1   
    58   53   54 1   
    59   53   55 2   
    60   54   60 1   
    61   54   61 1   
    62   62   63 1   
    63   62   66 1   
    64   63   64 1   
    65   63   67 1   
    66   63   68 1   
    67   64   65 2   
    68   64   69 1   
    69   69   70 1   
    70   69   76 1   
    71   70   71 1   
    72   70   73 1   
    73   70   77 1   
    74   71   72 2   
    75   71   83 1   
    76   73   74 1   
    77   73   75 1   
    78   73   78 1   
    79   74   80 1   
    80   74   81 1   
    81   74   82 1   
    82   75   79 1   
    83   83   84 1   
    84   83   91 1   
    85   84   85 1   
    86   84   87 1   
    87   84   92 1   
    88   85   86 2   
    89   85  102 1   
    90   87   88 1   
    91   87   89 1   
    92   87   93 1   
    93   88   90 1   
    94   88   94 1   
    95   88   95 1   
    96   89   96 1   
    97   89   97 1   
    98   89   98 1   
    99   90   99 1   
   100   90  100 1   
   101   90  101 1   
   102  102  103 1   
   103  102  110 1   
   104  103  104 1   
   105  103  106 1   
   106  103  111 1   
   107  104  105 2   
   108  104  114 1   
   109  106  107 1   
   110  106  112 1   
   111  106  113 1   
   112  107  108 1   
   113  107  109 1   
   114  114  115 1   
   115  114  125 1   
   116  115  116 1   
   117  115  118 1   
   118  115  126 1   
   119  116  117 2   
   120  116  134 1   
   121  118  119 1   
   122  118  127 1   
   123  118  128 1   
   124  119  120 ar  
   125  119  121 ar  
   126  120  122 ar  
   127  120  129 1   
   128  121  123 ar  
   129  121  130 1   
   130  122  124 ar  
   131  122  131 1   
   132  123  124 ar  
   133  123  132 1   
   134  124  133 1   
   135  134  135 1   
   136  134  140 1   
   137  135  136 1   
   138  135  138 1   
   139  135  141 1   
   140  136  137 2   
   141  136  148 1   
   142  138  139 1   
   143  138  142 1   
   144  138  143 1   
   145  139  140 1   
   146  139  144 1   
   147  139  145 1   
   148  140  146 1   
   149  140  147 1   
   150  148  149 1   
   151  148  157 1   
   152  149  150 1   
   153  149  152 1   
   154  149  158 1   
   155  150  151 2   
   156  150  163 1   
   157  152  153 1   
   158  152  159 1   
   159  152  160 1   
   160  153  154 1   
   161  153  161 1   
   162  153  162 1   
   163  154  155 1   
   164  154  156 1   
   165  163  164 1   
   166  163  168 1   
   167  164  165 1   
   168  164  166 1   
   169  164  167 1   
   170  170  171 1   
   171  170  172 1   
   172  173  174 1   
   173  173  175 1   
   174  176  177 1   
   175  176  178 1   
   176  179  180 1   
   177  179  181 1   
@<TRIPOS>SUBSTRUCTURE
     1 MOL         1 TEMP              0 ****  ****    0 ROOT
