@<TRIPOS>MOLECULE
MOL
  178   175     1     0     0
SMALL
resp


@<TRIPOS>ATOM
      1 C1          1.4500    7.1200   -2.3240 c3        1 MOL     -0.387972
      2 C2          2.5610    6.4140   -1.5090 c         1 MOL      0.679350
      3 O1          2.6870    6.6380   -0.2760 o         1 MOL     -0.571977
      4 H1          1.8890    7.9220   -2.9170 hc        1 MOL      0.101825
      5 H2          0.9710    6.3980   -2.9860 hc        1 MOL      0.101825
      6 H3          0.7080    7.5370   -1.6420 hc        1 MOL      0.101825
      7 N1          3.5270    5.6480   -2.1230 n         1 MOL     -0.592882
      8 C3          4.6730    4.9620   -1.4330 c3        1 MOL      0.207819
      9 C4          4.2270    3.9810   -0.2630 c         1 MOL      0.623899
     10 O2          3.4530    3.0580   -0.4520 o         1 MOL     -0.589559
     11 C5          5.6090    4.2740   -2.4320 c3        1 MOL     -0.409002
     12 C6          6.7850    3.7030   -1.6640 c         1 MOL      0.791056
     13 O3          7.6220    4.4340   -1.1190 o         1 MOL     -0.735189
     14 O4          6.9390    2.4640   -1.5260 o         1 MOL     -0.735189
     15 H4          3.5060    5.5540   -3.1300 hn        1 MOL      0.304131
     16 H5          5.2040    5.7690   -0.9310 h1        1 MOL      0.037271
     17 H6          6.0330    4.9710   -3.1610 hc        1 MOL      0.078168
     18 H7          5.0600    3.5390   -3.0180 hc        1 MOL      0.078168
     19 N2          4.7660    4.1890    0.9460 n         1 MOL     -0.614532
     20 C7          4.7470    3.2630    2.0530 c3        1 MOL      0.571757
     21 C8          3.3400    3.0940    2.7010 c         1 MOL      0.286864
     22 O5          2.4140    3.9080    2.5280 o         1 MOL     -0.520958
     23 C9          5.8550    3.8520    2.9850 c3        1 MOL     -0.445967
     24 H8          5.3940    4.9660    1.1240 hn        1 MOL      0.311427
     25 H9          5.0890    2.2750    1.7590 h1        1 MOL      0.002475
     26 H10         6.2740    3.0150    3.5320 hc        1 MOL      0.113676
     27 H11         6.6600    4.2910    2.4010 hc        1 MOL      0.113676
     28 H12         5.4170    4.6770    3.5580 hc        1 MOL      0.113676
     29 N3          2.9690    2.0080    3.3690 n         1 MOL     -0.236506
     30 C10         3.7810    0.8650    3.9130 c3        1 MOL     -0.124074
     31 C11         4.1080   -0.2340    2.8910 c         1 MOL      0.592898
     32 O6          3.3670   -0.3780    1.9150 o         1 MOL     -0.545992
     33 C12         3.0950    0.3040    5.1790 c3        1 MOL     -0.174005
     34 C13         1.5740   -0.2200    4.9800 c         1 MOL      0.702510
     35 O7          1.0110   -0.0710    3.8650 o         1 MOL     -0.677486
     36 O8          1.0030   -0.6240    6.0130 o         1 MOL     -0.677486
     37 H13         2.0130    1.9980    3.6890 hn        1 MOL      0.259440
     38 H14         4.7600    1.2160    4.2260 h1        1 MOL      0.032830
     39 H15         3.0260    1.0900    5.9320 hc        1 MOL      0.045581
     40 H16         3.6210   -0.5670    5.5730 hc        1 MOL      0.045581
     41 N4          5.2380   -0.9590    3.0490 n         1 MOL     -0.464461
     42 C14         5.8700   -1.6370    1.9860 c3        1 MOL     -0.129511
     43 C15         6.6460   -0.7720    1.0690 c         1 MOL      0.770980
     44 O9          6.8850    0.3390    1.4460 o         1 MOL     -0.539317
     45 H17         5.8260   -0.9000    3.8680 hn        1 MOL      0.331248
     46 H18         5.2520   -2.2970    1.3680 h1        1 MOL      0.075042
     47 H19         6.6240   -2.2560    2.4780 h1        1 MOL      0.075042
     48 N5          7.0490   -1.1450   -0.1770 n         1 MOL     -0.741394
     49 C16         6.9960   -2.5090   -0.7500 c3        1 MOL      0.053108
     50 C17         6.2060   -2.6950   -1.9940 c         1 MOL      0.562810
     51 O10         6.2310   -3.7350   -2.6180 o         1 MOL     -0.571959
     52 C18         8.5480   -2.8720   -0.8810 c3        1 MOL     -0.193871
     53 C19         9.3840   -2.9090    0.4210 c         1 MOL      0.682674
     54 N6          9.5800   -4.1410    0.8050 n         1 MOL     -0.776796
     55 O11         9.9890   -2.0070    0.9370 o         1 MOL     -0.534353
     56 H20         7.3720   -0.3930   -0.7640 hn        1 MOL      0.398885
     57 H21         6.6130   -3.1820    0.0220 h1        1 MOL      0.066406
     58 H22         9.0470   -2.2590   -1.6330 hc        1 MOL      0.066555
     59 H23         8.5950   -3.8820   -1.2980 hc        1 MOL      0.066555
     60 H24         9.1140   -4.9330    0.3850 hn        1 MOL      0.348217
     61 H25        10.1470   -4.3130    1.6200 hn        1 MOL      0.348217
     62 N7          5.5920   -1.6240   -2.4070 n         1 MOL     -0.188943
     63 C20         4.7640   -1.5230   -3.6230 c3        1 MOL     -0.122543
     64 C21         3.4910   -2.3880   -3.6350 c         1 MOL      0.519075
     65 O12         3.0530   -2.7190   -4.7380 o         1 MOL     -0.534814
     66 H26         5.8130   -0.7830   -1.8830 hn        1 MOL      0.195800
     67 H27         5.3540   -1.7650   -4.4990 h1        1 MOL      0.096746
     68 H28         4.4100   -0.5150   -3.8110 h1        1 MOL      0.096746
     69 N8          2.9330   -2.8490   -2.4760 n         1 MOL     -0.257455
     70 C22         1.7280   -3.6330   -2.4170 c3        1 MOL     -0.177327
     71 C23         0.5180   -2.9210   -1.8310 c         1 MOL      0.614923
     72 O13         0.5930   -2.0630   -0.9140 o         1 MOL     -0.563509
     73 C24         1.8800   -5.0070   -1.7020 c3        1 MOL      0.420555
     74 C25         2.9320   -5.8300   -2.4770 c3        1 MOL     -0.437554
     75 O14         2.5510   -4.9170   -0.4860 oh        1 MOL     -0.615244
     76 H29         3.2600   -2.4000   -1.6390 hn        1 MOL      0.207837
     77 H30         1.4910   -3.8430   -3.4590 h1        1 MOL      0.085876
     78 H31         0.9020   -5.4710   -1.6030 h1        1 MOL     -0.008868
     79 H32         1.8120   -5.0050    0.1180 ho        1 MOL      0.388908
     80 H33         2.5630   -6.3030   -3.3820 hc        1 MOL      0.109114
     81 H34         3.8720   -5.3400   -2.7200 hc        1 MOL      0.109114
     82 H35         3.2640   -6.6540   -1.8420 hc        1 MOL      0.109114
     83 N9         -0.6940   -3.2320   -2.2890 n         1 MOL     -0.347822
     84 C26        -1.9890   -2.5520   -2.0180 c3        1 MOL     -0.394741
     85 C27        -2.6300   -3.2840   -0.7870 c         1 MOL      0.478719
     86 O15        -2.6130   -4.5320   -0.6460 o         1 MOL     -0.551785
     87 C28        -2.8830   -2.8380   -3.2580 c3        1 MOL      0.228488
     88 C29        -4.3360   -2.3140   -2.9570 c3        1 MOL      0.262427
     89 C30        -2.2320   -2.1240   -4.5150 c3        1 MOL     -0.372675
     90 C31        -5.4210   -2.9110   -3.8740 c3        1 MOL     -0.365251
     91 H36        -0.7360   -3.9750   -2.9730 hn        1 MOL      0.270480
     92 H37        -1.8930   -1.5130   -1.6990 h1        1 MOL      0.254711
     93 H38        -2.8950   -3.8970   -3.4880 hc        1 MOL      0.000518
     94 H39        -4.3560   -1.2370   -3.1380 hc        1 MOL     -0.048963
     95 H40        -4.6320   -2.5410   -1.9350 hc        1 MOL     -0.048963
     96 H41        -2.8770   -1.9790   -5.3710 hc        1 MOL      0.087406
     97 H42        -1.9120   -1.1060   -4.2950 hc        1 MOL      0.087406
     98 H43        -1.3790   -2.7650   -4.7600 hc        1 MOL      0.087406
     99 H44        -6.3810   -2.7190   -3.4070 hc        1 MOL      0.070632
    100 H45        -5.3140   -2.3640   -4.8090 hc        1 MOL      0.070632
    101 H46        -5.3260   -3.9900   -3.9550 hc        1 MOL      0.070632
    102 N10        -3.0950   -2.4810    0.1390 n         1 MOL     -0.092792
    103 C32        -3.7400   -2.8400    1.4030 c3        1 MOL     -0.053975
    104 C33        -5.1190   -2.3470    1.5070 c         1 MOL      0.476059
    105 O16        -5.8010   -2.7380    2.4370 o         1 MOL     -0.533937
    106 C34        -3.0590   -2.4250    2.6580 c3        1 MOL     -0.288401
    107 C35        -1.6220   -3.0480    2.7070 c         1 MOL      0.761195
    108 O17        -1.4760   -4.2630    2.8000 o         1 MOL     -0.696442
    109 O18        -0.6280   -2.2710    2.5940 o         1 MOL     -0.696442
    110 H47        -2.9320   -1.5070   -0.0790 hn        1 MOL      0.099649
    111 H48        -3.7230   -3.9310    1.4200 h1        1 MOL      0.116437
    112 H49        -3.5850   -2.8810    3.5040 hc        1 MOL      0.079012
    113 H50        -3.1490   -1.3780    2.9590 hc        1 MOL      0.079012
    114 N11        -5.5550   -1.4370    0.6060 n         1 MOL     -0.449837
    115 C36        -6.7870   -0.6210    0.7820 c3        1 MOL      0.409747
    116 C37        -6.5740    0.8570    0.3920 c         1 MOL      0.254556
    117 O19        -7.2540    1.5120   -0.4640 o         1 MOL     -0.500074
    118 C38        -7.9750   -1.4300    0.1730 c3        1 MOL     -0.148490
    119 C39        -9.2800   -1.3130    0.8740 ca        1 MOL      0.005719
    120 C40       -10.2350   -0.4280    0.3530 ca        1 MOL     -0.088759
    121 C41        -9.4380   -1.8600    2.1560 ca        1 MOL     -0.088759
    122 C42       -11.4370   -0.2630    1.0950 ca        1 MOL     -0.141601
    123 C43       -10.6400   -1.7460    2.8600 ca        1 MOL     -0.141601
    124 C44       -11.6380   -0.9820    2.2890 ca        1 MOL     -0.123063
    125 H51        -4.9490   -1.2010   -0.1760 hn        1 MOL      0.266522
    126 H52        -7.1130   -0.6660    1.8210 h1        1 MOL     -0.007271
    127 H53        -7.6040   -2.4580    0.1630 hc        1 MOL      0.045549
    128 H54        -8.0410   -1.1460   -0.8850 hc        1 MOL      0.045549
    129 H55       -10.1890    0.0870   -0.6000 ha        1 MOL      0.111695
    130 H56        -8.6510   -2.4880    2.5400 ha        1 MOL      0.111695
    131 H57       -12.2070    0.3380    0.6310 ha        1 MOL      0.108866
    132 H58       -10.6750   -2.2280    3.8250 ha        1 MOL      0.108866
    133 H59       -12.5800   -0.8550    2.8030 ha        1 MOL      0.089542
    134 N12        -5.6380    1.4730    1.1700 n         1 MOL     -0.203154
    135 C45        -5.6230    3.0000    1.1600 c3        1 MOL      0.100307
    136 C46        -5.2840    3.5920   -0.1880 c         1 MOL      0.264728
    137 O20        -5.5200    4.7770   -0.4810 o         1 MOL     -0.517055
    138 C47        -4.5360    3.3650    2.1580 c3        1 MOL     -0.186853
    139 C48        -4.5810    2.1870    3.1670 c3        1 MOL      0.007847
    140 C49        -4.8790    0.9700    2.3030 c3        1 MOL     -0.027465
    141 H60        -6.5940    3.3740    1.4920 h1        1 MOL      0.078548
    142 H61        -3.5490    3.3280    1.7010 hc        1 MOL      0.080112
    143 H62        -4.8670    4.2890    2.6460 hc        1 MOL      0.080112
    144 H63        -3.6690    1.9860    3.7210 hc        1 MOL      0.021017
    145 H64        -5.3980    2.2280    3.9000 hc        1 MOL      0.021017
    146 H65        -3.9760    0.6040    1.8110 h1        1 MOL      0.097394
    147 H66        -5.3600    0.2400    2.9570 h1        1 MOL      0.097394
    148 N13        -4.5640    2.7730   -0.9370 n         1 MOL      0.020932
    149 C50        -3.9820    3.1600   -2.2900 c3        1 MOL     -0.389333
    150 C51        -4.9860    3.2140   -3.4470 c         1 MOL      0.548853
    151 O21        -4.8690    3.9370   -4.4690 o         1 MOL     -0.593910
    152 C52        -2.9150    2.2120   -2.7750 c3        1 MOL      0.197982
    153 C53        -1.7830    1.8040   -1.8040 c3        1 MOL     -0.325337
    154 C54        -2.2230    0.7700   -0.7620 c         1 MOL      0.922239
    155 O22        -1.3260    0.3200    0.0660 o         1 MOL     -0.835815
    156 O23        -3.4210    0.3790   -0.7720 o         1 MOL     -0.835815
    157 H67        -4.3330    1.8710   -0.5470 hn        1 MOL      0.241755
    158 H68        -3.5040    4.1420   -2.2760 h1        1 MOL      0.152114
    159 H69        -2.5120    2.6040   -3.7050 hc        1 MOL     -0.004115
    160 H70        -3.3740    1.2690   -3.0670 hc        1 MOL     -0.004115
    161 H71        -1.5130    2.6670   -1.1960 hc        1 MOL      0.077219
    162 H72        -0.9750    1.3950   -2.4140 hc        1 MOL      0.077219
    163 N14        -6.0180    2.4490   -3.3480 n         1 MOL     -0.132400
    164 C55        -7.1640    2.5040   -4.1540 c3        1 MOL     -0.223649
    165 H73        -7.0320    3.2670   -4.9210 h1        1 MOL      0.085391
    166 H74        -7.3210    1.5350   -4.6300 h1        1 MOL      0.085391
    167 H75        -8.0290    2.7520   -3.5390 h1        1 MOL      0.085391
    168 H76        -6.1480    2.0060   -2.4460 hn        1 MOL      0.199117
    169 Ca1         0.7080   -0.3960    1.2990 Ca        1 MOL      1.733508
    170 O24         1.9290    0.8260   -0.7770 oh        1 MOL     -0.907290
    171 H77         2.2550    1.6410   -0.3850 ho        1 MOL      0.427872
    172 H78         2.3680    0.7670   -1.6250 ho        1 MOL      0.427872
    173 O25         0.3580    2.2440    1.5990 oh        1 MOL     -0.907290
    174 H79        -0.2390    2.6780    0.9870 ho        1 MOL      0.427872
    175 H80         0.9480    2.9370    1.8870 ho        1 MOL      0.427872
    176 O26         1.9670   -2.7100    1.7520 oh        1 MOL     -0.907290
    177 H81         1.4780   -3.5260    1.8650 ho        1 MOL      0.427872
    178 H82         2.8860   -2.9940    1.6790 ho        1 MOL      0.427872
@<TRIPOS>BOND
     1    1    2 1   
     2    1    4 1   
     3    1    5 1   
     4    1    6 1   
     5    2    3 2   
     6    2    7 1   
     7    7    8 1   
     8    7   15 1   
     9    8    9 1   
    10    8   11 1   
    11    8   16 1   
    12    9   10 2   
    13    9   19 1   
    14   11   12 1   
    15   11   17 1   
    16   11   18 1   
    17   12   13 1   
    18   12   14 1   
    19   19   20 1   
    20   19   24 1   
    21   20   21 1   
    22   20   23 1   
    23   20   25 1   
    24   21   22 2   
    25   21   29 1   
    26   23   26 1   
    27   23   27 1   
    28   23   28 1   
    29   29   30 1   
    30   29   37 1   
    31   30   31 1   
    32   30   33 1   
    33   30   38 1   
    34   31   32 2   
    35   31   41 1   
    36   33   34 1   
    37   33   39 1   
    38   33   40 1   
    39   34   35 1   
    40   34   36 1   
    41   41   42 1   
    42   41   45 1   
    43   42   43 1   
    44   42   46 1   
    45   42   47 1   
    46   43   44 2   
    47   43   48 1   
    48   48   49 1   
    49   48   56 1   
    50   49   50 1   
    51   49   52 1   
    52   49   57 1   
    53   50   51 2   
    54   50   62 1   
    55   52   53 1   
    56   52   58 1   
    57   52   59 1   
    58   53   54 1   
    59   53   55 2   
    60   54   60 1   
    61   54   61 1   
    62   62   63 1   
    63   62   66 1   
    64   63   64 1   
    65   63   67 1   
    66   63   68 1   
    67   64   65 2   
    68   64   69 1   
    69   69   70 1   
    70   69   76 1   
    71   70   71 1   
    72   70   73 1   
    73   70   77 1   
    74   71   72 2   
    75   71   83 1   
    76   73   74 1   
    77   73   75 1   
    78   73   78 1   
    79   74   80 1   
    80   74   81 1   
    81   74   82 1   
    82   75   79 1   
    83   83   84 1   
    84   83   91 1   
    85   84   85 1   
    86   84   87 1   
    87   84   92 1   
    88   85   86 2   
    89   85  102 1   
    90   87   88 1   
    91   87   89 1   
    92   87   93 1   
    93   88   90 1   
    94   88   94 1   
    95   88   95 1   
    96   89   96 1   
    97   89   97 1   
    98   89   98 1   
    99   90   99 1   
   100   90  100 1   
   101   90  101 1   
   102  102  103 1   
   103  102  110 1   
   104  103  104 1   
   105  103  106 1   
   106  103  111 1   
   107  104  105 2   
   108  104  114 1   
   109  106  107 1   
   110  106  112 1   
   111  106  113 1   
   112  107  108 1   
   113  107  109 1   
   114  114  115 1   
   115  114  125 1   
   116  115  116 1   
   117  115  118 1   
   118  115  126 1   
   119  116  117 2   
   120  116  134 1   
   121  118  119 1   
   122  118  127 1   
   123  118  128 1   
   124  119  120 ar  
   125  119  121 ar  
   126  120  122 ar  
   127  120  129 1   
   128  121  123 ar  
   129  121  130 1   
   130  122  124 ar  
   131  122  131 1   
   132  123  124 ar  
   133  123  132 1   
   134  124  133 1   
   135  134  135 1   
   136  134  140 1   
   137  135  136 1   
   138  135  138 1   
   139  135  141 1   
   140  136  137 2   
   141  136  148 1   
   142  138  139 1   
   143  138  142 1   
   144  138  143 1   
   145  139  140 1   
   146  139  144 1   
   147  139  145 1   
   148  140  146 1   
   149  140  147 1   
   150  148  149 1   
   151  148  157 1   
   152  149  150 1   
   153  149  152 1   
   154  149  158 1   
   155  150  151 2   
   156  150  163 1   
   157  152  153 1   
   158  152  159 1   
   159  152  160 1   
   160  153  154 1   
   161  153  161 1   
   162  153  162 1   
   163  154  155 1   
   164  154  156 1   
   165  163  164 1   
   166  163  168 1   
   167  164  165 1   
   168  164  166 1   
   169  164  167 1   
   170  170  171 1   
   171  170  172 1   
   172  173  174 1   
   173  173  175 1   
   174  176  177 1   
   175  176  178 1   
@<TRIPOS>SUBSTRUCTURE
     1 MOL         1 TEMP              0 ****  ****    0 ROOT
