@<TRIPOS>MOLECULE
MOL
  192   187     1     0     0
SMALL
resp


@<TRIPOS>ATOM
      1 C1         -0.6090    6.9610   -4.8880 c3        1 MOL     -0.318273
      2 C2         -0.8370    6.6760   -3.4250 c         1 MOL      0.632652
      3 O1         -0.5630    7.4480   -2.5090 o         1 MOL     -0.587981
      4 H1          0.3090    6.4720   -5.2140 hc        1 MOL      0.090213
      5 H2         -1.4490    6.5790   -5.4680 hc        1 MOL      0.090213
      6 H3         -0.5210    8.0370   -5.0400 hc        1 MOL      0.090213
      7 N1         -1.3240    5.4230   -3.1210 n         1 MOL     -0.415017
      8 C3         -1.7910    4.9160   -1.7570 c3        1 MOL     -0.321913
      9 C4         -0.6640    4.2960   -0.9500 c         1 MOL      0.955113
     10 O2         -0.6990    4.1850    0.2530 o         1 MOL     -0.716415
     11 C5         -2.9210    3.9430   -1.9540 c3        1 MOL     -0.293959
     12 C6         -2.5670    2.6530   -2.7660 c         1 MOL      0.759471
     13 O3         -2.2290    2.7220   -3.9940 o         1 MOL     -0.698798
     14 O4         -2.7090    1.5050   -2.2860 o         1 MOL     -0.698798
     15 H4         -1.4700    4.8040   -3.9050 hn        1 MOL      0.235331
     16 H5         -2.1820    5.7750   -1.2060 h1        1 MOL      0.271944
     17 H6         -3.7610    4.4660   -2.3940 hc        1 MOL      0.116353
     18 H7         -3.2780    3.6580   -0.9670 hc        1 MOL      0.116353
     19 N2          0.4540    4.0290   -1.6490 n         1 MOL     -0.606691
     20 C7          1.4470    3.0320   -1.1340 c3        1 MOL      0.049279
     21 C8          2.5750    3.7050   -0.3410 c         1 MOL      0.705694
     22 O5          2.9360    4.8310   -0.6010 o         1 MOL     -0.583069
     23 C9          2.1200    2.3580   -2.3940 c3        1 MOL     -0.265550
     24 C10         1.1110    1.4970   -3.2530 c3        1 MOL     -0.093674
     25 C11         0.3040    0.4030   -2.5230 c3        1 MOL      0.292152
     26 C12        -0.2830   -0.5480   -3.6270 c3        1 MOL     -0.161576
     27 N3         -1.3200    0.1230   -4.3930 n4        1 MOL     -0.159385
     28 H8          0.4950    4.2720   -2.6290 hn        1 MOL      0.317527
     29 H9          0.9420    2.2000   -0.6450 h1        1 MOL      0.144198
     30 H10         2.9420    1.7170   -2.0820 hc        1 MOL      0.122943
     31 H11         2.6030    3.0650   -3.0610 hc        1 MOL      0.122943
     32 H12         1.7200    1.1010   -4.0750 hc        1 MOL      0.017449
     33 H13         0.4100    2.2210   -3.6440 hc        1 MOL      0.017449
     34 H14        -0.4350    0.7800   -1.8170 hc        1 MOL     -0.028098
     35 H15         0.9640   -0.2890   -1.9970 hc        1 MOL     -0.028098
     36 H16        -0.7670   -1.3370   -3.0440 hx        1 MOL      0.079128
     37 H17         0.5500   -0.9350   -4.2230 hx        1 MOL      0.079128
     38 H18        -1.9660   -0.4140   -4.9500 hn        1 MOL      0.255314
     39 H19        -1.9370    0.6740   -3.8300 hn        1 MOL      0.255314
     40 H20        -0.8740    0.7180   -5.0770 hn        1 MOL      0.255314
     41 N4          3.1240    3.2040    0.7750 n         1 MOL     -0.669355
     42 C13         2.9570    1.8920    1.4410 c3        1 MOL      0.671970
     43 C14         3.0830    0.7360    0.4820 c         1 MOL      0.137449
     44 O6          2.0640    0.1550    0.1700 o         1 MOL     -0.478721
     45 C15         1.6630    1.8610    2.3250 c3        1 MOL     -0.354825
     46 C16         1.6900    2.9950    3.3450 c         1 MOL      0.779329
     47 O7          0.5720    3.4070    3.7830 o         1 MOL     -0.722082
     48 O8          2.7700    3.4850    3.7540 o         1 MOL     -0.722082
     49 H21         3.6170    3.8810    1.3300 hn        1 MOL      0.342150
     50 H22         3.7550    1.7660    2.1710 h1        1 MOL     -0.042415
     51 H23         1.3910    0.8770    2.6980 hc        1 MOL      0.018209
     52 H24         0.8440    2.0840    1.6320 hc        1 MOL      0.018209
     53 N5          4.2830    0.2470    0.1020 n         1 MOL     -0.206319
     54 C17         5.5710    0.7680    0.6020 c3        1 MOL     -0.329028
     55 C18         6.3010    1.5120   -0.5560 c         1 MOL      0.550377
     56 O9          5.6880    2.1760   -1.4090 o         1 MOL     -0.541833
     57 H25         4.2730   -0.6150   -0.4200 hn        1 MOL      0.246873
     58 H26         6.0630   -0.1810    0.8210 h1        1 MOL      0.163481
     59 H27         5.5110    1.3570    1.5160 h1        1 MOL      0.163481
     60 N6          7.6890    1.3840   -0.6700 n         1 MOL     -0.437148
     61 C19         8.6010    0.4060    0.0250 c3        1 MOL      0.008884
     62 C20         8.6770   -1.0240   -0.4000 c         1 MOL      0.378371
     63 O10         9.1010   -1.9430    0.2890 o         1 MOL     -0.465000
     64 C21        10.0120    0.9140    0.0570 c3        1 MOL     -0.208907
     65 C22        10.2350    2.2640    0.7490 c         1 MOL      0.694919
     66 O11        11.3790    2.6110    1.1030 o         1 MOL     -0.608030
     67 O12         9.2190    2.9620    1.1840 o         1 MOL     -0.608030
     68 H28         8.1220    1.9540   -1.3890 hn        1 MOL      0.301099
     69 H29         8.2890    0.4110    1.0680 h1        1 MOL      0.106445
     70 H30        10.3220    1.1360   -0.9600 hc        1 MOL      0.058991
     71 H31        10.6120    0.1640    0.5770 hc        1 MOL      0.058991
     72 N7          8.2910   -1.0940   -1.6950 n         1 MOL     -0.183086
     73 C23         8.3450   -2.3070   -2.5200 c3        1 MOL     -0.298821
     74 C24         7.2330   -3.2630   -2.0930 c         1 MOL      0.685975
     75 O13         6.5830   -3.7390   -3.0040 o         1 MOL     -0.596134
     76 H32         7.8420   -0.2870   -2.1100 hn        1 MOL      0.228073
     77 H33         9.3830   -2.6160   -2.4090 h1        1 MOL      0.130942
     78 H34         8.1930   -2.0310   -3.5610 h1        1 MOL      0.130942
     79 N8          6.9990   -3.5170   -0.8420 n         1 MOL     -0.522627
     80 C25         5.8980   -4.3430   -0.2770 c3        1 MOL      0.110926
     81 C26         4.5650   -3.7010   -0.2960 c         1 MOL      0.471907
     82 O14         4.4500   -2.4690   -0.3610 o         1 MOL     -0.446512
     83 C27         6.1600   -4.7190    1.1740 c3        1 MOL      0.271402
     84 C28         5.9970   -3.5840    2.1900 c3        1 MOL     -0.161206
     85 O15         7.5490   -5.0690    1.1400 oh        1 MOL     -0.560432
     86 H35         7.6560   -3.0820   -0.2120 hn        1 MOL      0.277397
     87 H36         5.8000   -5.2750   -0.8260 h1        1 MOL      0.042126
     88 H37         5.5620   -5.5880    1.4330 h1        1 MOL     -0.005773
     89 H38         7.5540   -5.9460    0.7420 ho        1 MOL      0.367260
     90 H39         6.2350   -2.6050    1.7740 hc        1 MOL      0.058961
     91 H40         4.9790   -3.5180    2.5870 hc        1 MOL      0.058961
     92 H41         6.6650   -3.8200    3.0150 hc        1 MOL      0.058961
     93 N9          3.4560   -4.5250   -0.2230 n         1 MOL     -0.428856
     94 C29         2.0370   -4.1050   -0.1360 c3        1 MOL      0.029470
     95 C30         1.2770   -4.8420    0.9880 c         1 MOL      0.490445
     96 O16         1.3900   -6.0120    1.2030 o         1 MOL     -0.483289
     97 C31         1.2650   -4.0700   -1.4950 c3        1 MOL     -0.145805
     98 C32         0.7540   -5.4060   -1.9940 c3        1 MOL      0.066657
     99 C33         1.9820   -3.2890   -2.6740 c3        1 MOL     -0.172931
    100 C34         1.7690   -6.2450   -2.7800 c3        1 MOL     -0.180909
    101 H42         3.6170   -5.5210   -0.1180 hn        1 MOL      0.268680
    102 H43         2.0240   -3.0980    0.2590 h1        1 MOL      0.081367
    103 H44         0.4150   -3.4210   -1.2620 hc        1 MOL      0.026181
    104 H45        -0.1070   -5.2770   -2.6530 hc        1 MOL      0.018557
    105 H46         0.2790   -5.9160   -1.1540 hc        1 MOL      0.018557
    106 H47         1.3740   -3.2690   -3.5750 hc        1 MOL      0.068851
    107 H48         2.1320   -2.2530   -2.3740 hc        1 MOL      0.068851
    108 H49         2.9720   -3.7230   -2.8280 hc        1 MOL      0.068851
    109 H50         1.4540   -7.2840   -2.7450 hc        1 MOL      0.049647
    110 H51         1.7610   -6.0120   -3.8490 hc        1 MOL      0.049647
    111 H52         2.7390   -6.1520   -2.2880 hc        1 MOL      0.049647
    112 N10         0.3570   -4.0370    1.6430 n         1 MOL     -0.331186
    113 C35        -0.6890   -4.4600    2.6470 c3        1 MOL      0.043802
    114 C36        -2.1690   -4.4220    2.1580 c         1 MOL      0.515261
    115 O17        -2.9960   -5.0510    2.7310 o         1 MOL     -0.502211
    116 C37        -0.5830   -3.6310    3.9020 c3        1 MOL      0.246816
    117 C38        -0.5450   -2.0720    3.7820 c3        1 MOL     -0.200073
    118 O18         0.6510   -3.8890    4.4520 oh        1 MOL     -0.628788
    119 H53         0.4290   -3.0570    1.4470 hn        1 MOL      0.260912
    120 H54        -0.6110   -5.4900    2.9820 h1        1 MOL      0.093971
    121 H55        -1.4150   -3.8700    4.5760 h1        1 MOL      0.033141
    122 H56         0.6880   -3.5220    5.3430 ho        1 MOL      0.403910
    123 H57        -1.5310   -1.7710    3.4250 hc        1 MOL      0.060480
    124 H58        -0.4400   -1.7010    4.7990 hc        1 MOL      0.060480
    125 H59         0.2420   -1.7920    3.0850 hc        1 MOL      0.060480
    126 N11        -2.3870   -3.6710    1.0150 n         1 MOL     -0.586169
    127 C39        -3.6910   -3.4020    0.3700 c3        1 MOL      0.021263
    128 C40        -4.7750   -2.8470    1.2650 c         1 MOL      0.663564
    129 O19        -4.6360   -2.6750    2.4640 o         1 MOL     -0.472704
    130 C41        -4.1770   -4.5440   -0.5400 c3        1 MOL      0.470610
    131 C42        -3.0860   -5.3380   -1.2600 c3        1 MOL     -0.418256
    132 O20        -5.0540   -4.0840   -1.5090 oh        1 MOL     -0.618425
    133 H60        -1.5580   -3.2630    0.5960 hn        1 MOL      0.280736
    134 H61        -3.4580   -2.5940   -0.3280 h1        1 MOL      0.124934
    135 H62        -4.7310   -5.2310    0.0930 h1        1 MOL     -0.024362
    136 H63        -5.7330   -4.7540   -1.5970 ho        1 MOL      0.381933
    137 H64        -2.4240   -4.7230   -1.8550 hc        1 MOL      0.100573
    138 H65        -2.4610   -5.9630   -0.6260 hc        1 MOL      0.100573
    139 H66        -3.5810   -6.0930   -1.8680 hc        1 MOL      0.100573
    140 N12        -5.8910   -2.4830    0.6550 n         1 MOL     -0.656496
    141 C43        -7.1690   -2.2280    1.3510 c3        1 MOL     -0.025239
    142 C44        -7.6290   -0.7110    1.3670 c         1 MOL      0.526177
    143 O21        -8.6770   -0.3960    2.0070 o         1 MOL     -0.573474
    144 C45        -8.2400   -3.3270    1.0040 c3        1 MOL     -0.043175
    145 C46        -8.4560   -3.3660   -0.5050 c3        1 MOL     -0.130651
    146 C47        -9.5200   -4.4090   -0.8820 c3        1 MOL     -0.033974
    147 C48        -9.9180   -4.4060   -2.3820 c3        1 MOL      0.106006
    148 N13       -10.8170   -5.5320   -2.7790 n4        1 MOL     -0.300981
    149 H67        -5.9300   -2.9040   -0.2600 hn        1 MOL      0.243423
    150 H68        -7.0680   -2.4380    2.4100 h1        1 MOL      0.115425
    151 H69        -9.2030   -3.0460    1.4430 hc        1 MOL      0.064813
    152 H70        -8.0300   -4.3460    1.3190 hc        1 MOL      0.064813
    153 H71        -7.5730   -3.3370   -1.1470 hc        1 MOL      0.078101
    154 H72        -8.9580   -2.4260   -0.7200 hc        1 MOL      0.078101
    155 H73       -10.4000   -4.2870   -0.2490 hc        1 MOL      0.027106
    156 H74        -9.0300   -5.3590   -0.6720 hc        1 MOL      0.027106
    157 H75        -9.0240   -4.4450   -2.9980 hx        1 MOL      0.047111
    158 H76       -10.3570   -3.4450   -2.6410 hx        1 MOL      0.047111
    159 H77       -11.6800   -5.3400   -2.2860 hn        1 MOL      0.238401
    160 H78       -10.9210   -5.5160   -3.7810 hn        1 MOL      0.238401
    161 H79       -10.4050   -6.4070   -2.5010 hn        1 MOL      0.238401
    162 N14        -6.8370    0.1790    0.8360 n         1 MOL     -0.192667
    163 C49        -7.0830    1.6080    0.7550 c3        1 MOL     -0.208126
    164 C50        -7.5520    1.8570   -0.6800 c         1 MOL      0.413776
    165 O22        -7.1020    1.2970   -1.6640 o         1 MOL     -0.494778
    166 C51        -5.7600    2.4710    0.9710 c3        1 MOL      0.142181
    167 C52        -5.1450    2.5180    2.4090 c3        1 MOL     -0.125804
    168 C53        -3.8770    3.4360    2.3500 c         1 MOL      0.531059
    169 O23        -4.0380    4.6440    2.3130 o         1 MOL     -0.681020
    170 O24        -2.7040    2.9790    2.1850 o         1 MOL     -0.681020
    171 H80        -5.8950   -0.1540    0.6630 hn        1 MOL      0.238222
    172 H81        -7.7850    1.9030    1.5440 h1        1 MOL      0.115062
    173 H82        -6.0050    3.4960    0.6770 hc        1 MOL      0.024337
    174 H83        -5.0230    2.1520    0.2370 hc        1 MOL      0.024337
    175 H84        -4.9780    1.5050    2.7570 hc        1 MOL      0.030514
    176 H85        -5.8580    2.9240    3.1240 hc        1 MOL      0.030514
    177 N15        -8.6060    2.6470   -0.7610 n         1 MOL     -0.205716
    178 C54        -9.6160    2.7490   -1.8120 c3        1 MOL     -0.291523
    179 H86       -10.3940    3.4470   -1.5020 h1        1 MOL      0.124223
    180 H87        -9.1510    3.1100   -2.7300 h1        1 MOL      0.124223
    181 H88       -10.0590    1.7690   -1.9890 h1        1 MOL      0.124223
    182 H89        -8.8500    3.0880    0.1120 hn        1 MOL      0.227726
    183 Ca1        -1.2920    4.9590    2.7500 Ca        1 MOL      1.814870
    184 O25         0.8830    6.3550    1.8700 oh        1 MOL     -1.013375
    185 H90         0.8510    7.2680    1.5880 ho        1 MOL      0.479077
    186 H91         1.8120    6.1420    1.8970 ho        1 MOL      0.479077
    187 O26        -2.1520    7.0470    1.2070 oh        1 MOL     -1.013375
    188 H92        -1.4720    7.5730    0.7760 ho        1 MOL      0.479077
    189 H93        -2.7760    7.6770    1.5410 ho        1 MOL      0.479077
    190 O27        -1.8230    4.3150    5.2670 oh        1 MOL     -1.013375
    191 H94        -1.3130    3.7250    5.8160 ho        1 MOL      0.479077
    192 H95        -2.4980    4.6690    5.8400 ho        1 MOL      0.479077
@<TRIPOS>BOND
     1    1    2 1   
     2    1    4 1   
     3    1    5 1   
     4    1    6 1   
     5    2    3 2   
     6    2    7 1   
     7    7    8 1   
     8    7   15 1   
     9    8    9 1   
    10    8   11 1   
    11    8   16 1   
    12    9   10 2   
    13    9   19 1   
    14   11   12 1   
    15   11   17 1   
    16   11   18 1   
    17   12   13 1   
    18   12   14 1   
    19   19   20 1   
    20   19   28 1   
    21   20   21 1   
    22   20   23 1   
    23   20   29 1   
    24   21   22 2   
    25   21   41 1   
    26   23   24 1   
    27   23   30 1   
    28   23   31 1   
    29   24   25 1   
    30   24   32 1   
    31   24   33 1   
    32   25   26 1   
    33   25   34 1   
    34   25   35 1   
    35   26   27 1   
    36   26   36 1   
    37   26   37 1   
    38   27   38 1   
    39   27   39 1   
    40   27   40 1   
    41   41   42 1   
    42   41   49 1   
    43   42   43 1   
    44   42   45 1   
    45   42   50 1   
    46   43   44 2   
    47   43   53 1   
    48   45   46 1   
    49   45   51 1   
    50   45   52 1   
    51   46   47 1   
    52   46   48 1   
    53   53   54 1   
    54   53   57 1   
    55   54   55 1   
    56   54   58 1   
    57   54   59 1   
    58   55   56 2   
    59   55   60 1   
    60   60   61 1   
    61   60   68 1   
    62   61   62 1   
    63   61   64 1   
    64   61   69 1   
    65   62   63 2   
    66   62   72 1   
    67   64   65 1   
    68   64   70 1   
    69   64   71 1   
    70   65   66 1   
    71   65   67 1   
    72   72   73 1   
    73   72   76 1   
    74   73   74 1   
    75   73   77 1   
    76   73   78 1   
    77   74   75 2   
    78   74   79 1   
    79   79   80 1   
    80   79   86 1   
    81   80   81 1   
    82   80   83 1   
    83   80   87 1   
    84   81   82 2   
    85   81   93 1   
    86   83   84 1   
    87   83   85 1   
    88   83   88 1   
    89   84   90 1   
    90   84   91 1   
    91   84   92 1   
    92   85   89 1   
    93   93   94 1   
    94   93  101 1   
    95   94   95 1   
    96   94   97 1   
    97   94  102 1   
    98   95   96 2   
    99   95  112 1   
   100   97   98 1   
   101   97   99 1   
   102   97  103 1   
   103   98  100 1   
   104   98  104 1   
   105   98  105 1   
   106   99  106 1   
   107   99  107 1   
   108   99  108 1   
   109  100  109 1   
   110  100  110 1   
   111  100  111 1   
   112  112  113 1   
   113  112  119 1   
   114  113  114 1   
   115  113  116 1   
   116  113  120 1   
   117  114  115 2   
   118  114  126 1   
   119  116  117 1   
   120  116  118 1   
   121  116  121 1   
   122  117  123 1   
   123  117  124 1   
   124  117  125 1   
   125  118  122 1   
   126  126  127 1   
   127  126  133 1   
   128  127  128 1   
   129  127  130 1   
   130  127  134 1   
   131  128  129 2   
   132  128  140 1   
   133  130  131 1   
   134  130  132 1   
   135  130  135 1   
   136  131  137 1   
   137  131  138 1   
   138  131  139 1   
   139  132  136 1   
   140  140  141 1   
   141  140  149 1   
   142  141  142 1   
   143  141  144 1   
   144  141  150 1   
   145  142  143 2   
   146  142  162 1   
   147  144  145 1   
   148  144  151 1   
   149  144  152 1   
   150  145  146 1   
   151  145  153 1   
   152  145  154 1   
   153  146  147 1   
   154  146  155 1   
   155  146  156 1   
   156  147  148 1   
   157  147  157 1   
   158  147  158 1   
   159  148  159 1   
   160  148  160 1   
   161  148  161 1   
   162  162  163 1   
   163  162  171 1   
   164  163  164 1   
   165  163  166 1   
   166  163  172 1   
   167  164  165 2   
   168  164  177 1   
   169  166  167 1   
   170  166  173 1   
   171  166  174 1   
   172  167  168 1   
   173  167  175 1   
   174  167  176 1   
   175  168  169 1   
   176  168  170 1   
   177  177  178 1   
   178  177  182 1   
   179  178  179 1   
   180  178  180 1   
   181  178  181 1   
   182  184  185 1   
   183  184  186 1   
   184  187  188 1   
   185  187  189 1   
   186  190  191 1   
   187  190  192 1   
@<TRIPOS>SUBSTRUCTURE
     1 MOL         1 TEMP              0 ****  ****    0 ROOT
