@<TRIPOS>MOLECULE
MOL
  191   184     1     0     0
SMALL
resp


@<TRIPOS>ATOM
      1 C1          3.3690    2.7230    2.7270 c3        1 MOL     -0.523283
      2 C2          4.2740    2.5020    1.4630 c         1 MOL      0.507125
      3 O1          4.1230    1.4900    0.7570 o         1 MOL     -0.495111
      4 H1          3.8740    2.3270    3.6090 hc        1 MOL      0.154760
      5 H2          3.1860    3.7890    2.8620 hc        1 MOL      0.154760
      6 H3          2.4190    2.2060    2.5900 hc        1 MOL      0.154760
      7 N1          5.2890    3.3240    1.1870 n         1 MOL     -0.517984
      8 C3          6.3760    3.1320    0.2960 c3        1 MOL     -0.017317
      9 C4          7.1130    1.7920    0.3340 c         1 MOL      0.519383
     10 O2          7.5140    1.2190   -0.6290 o         1 MOL     -0.508968
     11 C5          5.8660    3.4770   -1.0600 c3        1 MOL     -0.047259
     12 C6          5.2000    4.8600   -1.3260 c         1 MOL      0.680809
     13 O3          4.7020    5.5890   -0.4580 o         1 MOL     -0.680966
     14 O4          5.3260    5.1910   -2.5060 o         1 MOL     -0.680966
     15 H4          5.3100    4.2090    1.6660 hn        1 MOL      0.311516
     16 H5          7.1060    3.9110    0.5440 h1        1 MOL      0.071666
     17 H6          5.1980    2.6810   -1.3970 hc        1 MOL      0.016051
     18 H7          6.6640    3.3920   -1.7980 hc        1 MOL      0.016051
     19 N2          7.2110    1.2210    1.4780 n         1 MOL     -0.413676
     20 C7          7.8720   -0.0680    1.7310 c3        1 MOL      0.022749
     21 C8          6.9210   -1.2580    1.5950 c         1 MOL      0.513009
     22 O5          7.3840   -2.3910    1.8520 o         1 MOL     -0.568601
     23 C9          8.5700   -0.0180    3.0920 c3        1 MOL     -0.074926
     24 C10         9.7200    0.9910    3.2960 c3        1 MOL     -0.035965
     25 C11         9.9780    1.1720    4.7810 c3        1 MOL      0.031132
     26 C12        11.0660    2.2390    4.9270 c3        1 MOL      0.080703
     27 N3         11.3590    2.7140    6.3420 n4        1 MOL     -0.276543
     28 H8          6.8150    1.7310    2.2590 hn        1 MOL      0.255716
     29 H9          8.6030   -0.2610    0.9460 h1        1 MOL      0.122843
     30 H10         8.9930   -0.9840    3.3720 hc        1 MOL      0.047653
     31 H11         7.8340    0.2330    3.8430 hc        1 MOL      0.047653
     32 H12         9.4430    1.9240    2.7930 hc        1 MOL      0.034412
     33 H13        10.6020    0.5860    2.7990 hc        1 MOL      0.034412
     34 H14        10.2440    0.2680    5.3320 hc        1 MOL      0.012777
     35 H15         9.0470    1.5090    5.2380 hc        1 MOL      0.012777
     36 H16        10.7100    3.0830    4.3300 hx        1 MOL      0.051323
     37 H17        11.9480    1.9660    4.3380 hx        1 MOL      0.051323
     38 H18        10.4750    2.8730    6.7880 hn        1 MOL      0.257087
     39 H19        11.9510    2.1480    6.9360 hn        1 MOL      0.257087
     40 H20        11.8850    3.5840    6.2710 hn        1 MOL      0.257087
     41 N4          5.6240   -1.0010    1.3110 n         1 MOL     -0.349472
     42 C13         4.6270   -2.0740    1.0360 c3        1 MOL     -0.139235
     43 C14         4.9650   -2.7800   -0.2490 c         1 MOL      0.748242
     44 O6          5.3690   -2.2090   -1.2410 o         1 MOL     -0.509634
     45 C15         3.2430   -1.5440    0.9270 c3        1 MOL     -0.022519
     46 C16         2.1920   -2.5640    0.6740 c         1 MOL      0.738263
     47 O7          1.8480   -2.8990   -0.5050 o         1 MOL     -0.719224
     48 O8          1.5990   -3.0500    1.6230 o         1 MOL     -0.719224
     49 H21         5.3360   -0.0420    1.1700 hn        1 MOL      0.276444
     50 H22         4.5170   -2.6940    1.9360 h1        1 MOL      0.065477
     51 H23         3.0800   -0.7980    0.1460 hc        1 MOL      0.035760
     52 H24         2.8670   -1.1150    1.8550 hc        1 MOL      0.035760
     53 N5          4.8090   -4.1200   -0.1810 n         1 MOL     -0.607197
     54 C17         5.3460   -5.0630   -1.1860 c3        1 MOL      0.095466
     55 C18         4.6200   -5.1740   -2.6080 c         1 MOL      0.347763
     56 O9          5.2150   -5.6610   -3.5620 o         1 MOL     -0.514424
     57 H25         4.3670   -4.4680    0.6570 hn        1 MOL      0.335274
     58 H26         5.2400   -6.0690   -0.7860 h1        1 MOL      0.064085
     59 H27         6.4120   -5.0390   -1.4010 h1        1 MOL      0.064085
     60 N6          3.4000   -4.6850   -2.7420 n         1 MOL     -0.116203
     61 C19         2.7830   -4.2620   -3.9810 c3        1 MOL     -0.036102
     62 C20         2.7010   -2.7670   -4.1980 c         1 MOL      0.478065
     63 O10         2.5610   -2.2550   -5.2750 o         1 MOL     -0.541486
     64 C21         1.4350   -5.0680   -4.0570 c3        1 MOL     -0.059562
     65 C22         0.2600   -4.1760   -3.7990 c         1 MOL      0.492608
     66 N7         -0.4490   -3.7060   -4.8090 n         1 MOL     -0.668820
     67 O11        -0.1830   -3.8810   -2.6540 o         1 MOL     -0.578806
     68 H28         2.8360   -4.3960   -1.9580 hn        1 MOL      0.100763
     69 H29         3.3880   -4.7940   -4.7160 h1        1 MOL      0.113327
     70 H30         1.3610   -5.9640   -3.4350 hc        1 MOL      0.025807
     71 H31         1.3070   -5.4260   -5.0860 hc        1 MOL      0.025807
     72 H32        -0.0810   -3.8590   -5.7390 hn        1 MOL      0.364144
     73 H33        -1.3420   -3.2670   -4.6250 hn        1 MOL      0.364144
     74 N8          2.7890   -2.0330   -3.0720 n         1 MOL      0.053353
     75 C23         3.0310   -0.6090   -2.9660 c3        1 MOL     -0.330872
     76 C24         1.8270    0.3180   -2.8370 c         1 MOL      0.677180
     77 O12         0.8870    0.1770   -3.6200 o         1 MOL     -0.557718
     78 H34         2.6970   -2.5140   -2.1850 hn        1 MOL     -0.066304
     79 H35         3.6220   -0.2200   -3.7940 h1        1 MOL      0.140609
     80 H36         3.6490   -0.3130   -2.1230 h1        1 MOL      0.140609
     81 N9          1.9270    1.2780   -1.8520 n         1 MOL     -0.558346
     82 C25         0.9490    2.3890   -1.7300 c3        1 MOL      0.043606
     83 C26        -0.1430    1.9820   -0.6750 c         1 MOL      0.492906
     84 O13         0.1250    1.3250    0.3110 o         1 MOL     -0.482363
     85 C27         1.7590    3.6910   -1.4500 c3        1 MOL     -0.128631
     86 C28         0.8930    5.0370   -1.4230 ca        1 MOL     -0.005380
     87 C29         0.2770    5.4970   -2.6400 ca        1 MOL     -0.078824
     88 C30         0.7730    5.8260   -0.2990 ca        1 MOL     -0.078824
     89 C31        -0.4660    6.7160   -2.6440 ca        1 MOL     -0.282461
     90 C32         0.0020    7.0050   -0.2680 ca        1 MOL     -0.282461
     91 C33        -0.6270    7.4470   -1.4070 ca        1 MOL      0.363035
     92 O14        -1.5550    8.3820   -1.3510 oh        1 MOL     -0.522395
     93 H37         2.7030    1.1590   -1.2200 hn        1 MOL      0.324378
     94 H38         0.4400    2.4950   -2.6830 h1        1 MOL      0.074057
     95 H39         2.5480    3.8010   -2.1890 hc        1 MOL      0.134763
     96 H40         2.1940    3.5700   -0.4570 hc        1 MOL      0.134763
     97 H41         0.1900    4.8860   -3.5210 ha        1 MOL      0.113355
     98 H42         1.3010    5.6540    0.6350 ha        1 MOL      0.113355
     99 H43        -1.0210    6.9500   -3.5400 ha        1 MOL      0.142744
    100 H44        -0.1910    7.4630    0.6940 ha        1 MOL      0.142744
    101 H45        -1.4790    9.0280   -0.6360 ho        1 MOL      0.392623
    102 N10        -1.3830    2.3000   -0.9850 n         1 MOL     -0.571422
    103 C34        -2.5440    2.0070   -0.1590 c3        1 MOL     -0.044201
    104 C35        -3.5760    1.2860   -1.0950 c         1 MOL      0.524564
    105 O15        -4.2210    0.2900   -0.6700 o         1 MOL     -0.585130
    106 C36        -3.1530    3.3320    0.4110 c3        1 MOL      0.127973
    107 C37        -2.0650    4.1300    1.2010 c3        1 MOL      0.249266
    108 C38        -4.3710    2.9830    1.2870 c3        1 MOL     -0.493736
    109 C39        -2.6220    5.4130    1.8970 c3        1 MOL     -0.263694
    110 H46        -1.6610    2.5940   -1.9090 hn        1 MOL      0.242176
    111 H47        -2.3810    1.2620    0.6210 h1        1 MOL      0.120572
    112 H48        -3.3610    4.0120   -0.4170 hc        1 MOL     -0.019908
    113 H49        -1.2670    4.5870    0.6210 hc        1 MOL     -0.018908
    114 H50        -1.5780    3.4510    1.8990 hc        1 MOL     -0.018908
    115 H51        -5.1910    2.4750    0.7840 hc        1 MOL      0.129038
    116 H52        -4.0620    2.4400    2.1860 hc        1 MOL      0.129038
    117 H53        -4.7680    3.9640    1.5310 hc        1 MOL      0.129038
    118 H54        -3.4860    5.2060    2.5320 hc        1 MOL      0.048869
    119 H55        -1.7690    5.7750    2.4700 hc        1 MOL      0.048869
    120 H56        -2.7340    6.2120    1.1760 hc        1 MOL      0.048869
    121 N11        -3.7070    1.7660   -2.3110 n         1 MOL     -0.188211
    122 C40        -4.4920    1.1190   -3.3530 c3        1 MOL     -0.216743
    123 C41        -5.9610    1.0840   -2.9540 c         1 MOL      0.589353
    124 O16        -6.6650    0.1870   -3.2640 o         1 MOL     -0.528706
    125 C42        -4.3460    1.6600   -4.7420 c3        1 MOL      0.214728
    126 O17        -4.9590    2.9150   -4.7670 oh        1 MOL     -0.608397
    127 H57        -3.1290    2.5420   -2.5960 hn        1 MOL      0.244176
    128 H58        -4.3060    0.0370   -3.4020 h1        1 MOL      0.100252
    129 H59        -4.8730    1.0370   -5.4560 h1        1 MOL      0.038898
    130 H60        -3.3190    1.6300   -5.1120 h1        1 MOL      0.038898
    131 H61        -4.5240    3.3150   -5.5160 ho        1 MOL      0.405337
    132 N12        -6.3980    2.1830   -2.2600 n         1 MOL     -0.219842
    133 C43        -7.7880    2.3960   -1.7390 c3        1 MOL      0.234889
    134 C44        -8.3300    1.2850   -0.8210 c         1 MOL      0.507494
    135 O18        -9.5420    1.2580   -0.5050 o         1 MOL     -0.547804
    136 C45        -8.6900    2.8210   -2.8600 c3        1 MOL     -0.424205
    137 H62        -5.7330    2.9460   -2.1580 hn        1 MOL      0.143920
    138 H63        -7.7690    3.2240   -1.0390 h1        1 MOL      0.034542
    139 H64        -8.2850    3.5870   -3.5100 hc        1 MOL      0.118669
    140 H65        -8.8600    1.9050   -3.4490 hc        1 MOL      0.118669
    141 H66        -9.6370    3.1340   -2.4390 hc        1 MOL      0.118669
    142 N13        -7.4560    0.3370   -0.3510 n         1 MOL     -0.783473
    143 C46        -7.7920   -0.7890    0.4770 c3        1 MOL      0.896998
    144 C47        -7.4380   -0.5650    1.9940 c         1 MOL      0.380945
    145 O19        -6.5370    0.1850    2.3020 o         1 MOL     -0.444750
    146 C48        -7.2480   -2.0890   -0.0940 c3        1 MOL     -0.521400
    147 H67        -6.4990    0.4530   -0.6610 hn        1 MOL      0.299195
    148 H68        -8.8630   -0.9580    0.5070 h1        1 MOL     -0.145543
    149 H69        -7.4030   -2.0590   -1.1740 hc        1 MOL      0.114354
    150 H70        -6.1950   -2.0300    0.2020 hc        1 MOL      0.114354
    151 H71        -7.8950   -2.8970    0.2190 hc        1 MOL      0.114354
    152 N14        -8.1980   -1.2810    2.7970 n         1 MOL     -0.702039
    153 C49        -8.0080   -1.5860    4.2750 c3        1 MOL      0.039150
    154 C50        -7.6870   -0.3780    5.1420 c         1 MOL      0.453348
    155 O20        -7.0980   -0.4910    6.2090 o         1 MOL     -0.513918
    156 C51        -7.1000   -2.7960    4.4480 c3        1 MOL      0.191308
    157 C52        -5.5080   -2.5760    4.3880 c3        1 MOL     -0.247381
    158 C53        -4.6710   -3.8560    4.5210 c         1 MOL      0.652100
    159 O21        -4.3660   -4.3440    5.6460 o         1 MOL     -0.657902
    160 O22        -4.0910   -4.2750    3.5320 o         1 MOL     -0.657902
    161 H72        -8.8750   -1.8680    2.3400 hn        1 MOL      0.364802
    162 H73        -8.9740   -1.8700    4.6970 h1        1 MOL      0.081784
    163 H74        -7.3390   -3.4140    3.5850 hc        1 MOL     -0.038235
    164 H75        -7.3620   -3.3200    5.3700 hc        1 MOL     -0.038235
    165 H76        -5.2160   -1.8730    5.1600 hc        1 MOL      0.064313
    166 H77        -5.3720   -2.1210    3.4020 hc        1 MOL      0.064313
    167 N15        -8.0650    0.8220    4.7940 n         1 MOL     -0.259348
    168 C54        -8.0930    2.0530    5.6080 c3        1 MOL     -0.103636
    169 H78        -7.8430    1.8110    6.6410 h1        1 MOL      0.077328
    170 H79        -7.3670    2.7650    5.2170 h1        1 MOL      0.077328
    171 H80        -9.0900    2.4930    5.5690 h1        1 MOL      0.077328
    172 H81        -8.4010    0.9010    3.8470 hn        1 MOL      0.233640
    173 Ca1        -0.4440   -4.0590   -0.0650 Ca        1 MOL      1.829492
    174 O23        -1.7780   -3.5760    2.2640 oh        1 MOL     -0.857294
    175 H82        -1.3430   -2.9270    2.8180 ho        1 MOL      0.420017
    176 H83        -2.6370   -3.7040    2.6730 ho        1 MOL      0.420017
    177 O24         1.1950   -6.0840   -0.9340 oh        1 MOL     -0.857294
    178 O25        -0.7930   -1.3320   -0.0070 oh        1 MOL     -0.857294
    179 H84         1.4570   -6.5650   -1.7120 ho        1 MOL      0.420017
    180 H85        -0.3310   -0.6130    0.4190 ho        1 MOL      0.420017
    181 H86         1.1500   -6.7450   -0.2500 ho        1 MOL      0.420017
    182 H87        -0.9640   -1.0150   -0.8980 ho        1 MOL      0.420017
    183 O26        -2.8640   -3.1490   -0.6900 oh        1 MOL     -0.857294
    184 H88        -2.9400   -2.1950   -0.6220 ho        1 MOL      0.420017
    185 H89        -3.7370   -3.4790   -0.4970 ho        1 MOL      0.420017
    186 O27        -0.0650   -5.9830    1.7290 oh        1 MOL     -0.857294
    187 H90        -0.9530   -6.2200    2.0060 ho        1 MOL      0.420017
    188 H91         0.4640   -6.7530    1.9490 ho        1 MOL      0.420017
    189 O28        -1.7690   -6.1050   -1.3540 oh        1 MOL     -0.857294
    190 H92        -1.6000   -6.2850   -2.2810 ho        1 MOL      0.420017
    191 H93        -2.4370   -6.7460   -1.1100 ho        1 MOL      0.420017
@<TRIPOS>BOND
     1    1    2 1   
     2    1    4 1   
     3    1    5 1   
     4    1    6 1   
     5    2    3 2   
     6    2    7 1   
     7    7    8 1   
     8    7   15 1   
     9    8    9 1   
    10    8   11 1   
    11    8   16 1   
    12    9   10 2   
    13    9   19 1   
    14   11   12 1   
    15   11   17 1   
    16   11   18 1   
    17   12   13 1   
    18   12   14 1   
    19   19   20 1   
    20   19   28 1   
    21   20   21 1   
    22   20   23 1   
    23   20   29 1   
    24   21   22 2   
    25   21   41 1   
    26   23   24 1   
    27   23   30 1   
    28   23   31 1   
    29   24   25 1   
    30   24   32 1   
    31   24   33 1   
    32   25   26 1   
    33   25   34 1   
    34   25   35 1   
    35   26   27 1   
    36   26   36 1   
    37   26   37 1   
    38   27   38 1   
    39   27   39 1   
    40   27   40 1   
    41   41   42 1   
    42   41   49 1   
    43   42   43 1   
    44   42   45 1   
    45   42   50 1   
    46   43   44 2   
    47   43   53 1   
    48   45   46 1   
    49   45   51 1   
    50   45   52 1   
    51   46   47 1   
    52   46   48 1   
    53   53   54 1   
    54   53   57 1   
    55   54   55 1   
    56   54   58 1   
    57   54   59 1   
    58   55   56 2   
    59   55   60 1   
    60   60   61 1   
    61   60   68 1   
    62   61   62 1   
    63   61   64 1   
    64   61   69 1   
    65   62   63 2   
    66   62   74 1   
    67   64   65 1   
    68   64   70 1   
    69   64   71 1   
    70   65   66 1   
    71   65   67 2   
    72   66   72 1   
    73   66   73 1   
    74   74   75 1   
    75   74   78 1   
    76   75   76 1   
    77   75   79 1   
    78   75   80 1   
    79   76   77 2   
    80   76   81 1   
    81   81   82 1   
    82   81   93 1   
    83   82   83 1   
    84   82   85 1   
    85   82   94 1   
    86   83   84 2   
    87   83  102 1   
    88   85   86 1   
    89   85   95 1   
    90   85   96 1   
    91   86   87 ar  
    92   86   88 ar  
    93   87   89 ar  
    94   87   97 1   
    95   88   90 ar  
    96   88   98 1   
    97   89   91 ar  
    98   89   99 1   
    99   90   91 ar  
   100   90  100 1   
   101   91   92 1   
   102   92  101 1   
   103  102  103 1   
   104  102  110 1   
   105  103  104 1   
   106  103  106 1   
   107  103  111 1   
   108  104  105 2   
   109  104  121 1   
   110  106  107 1   
   111  106  108 1   
   112  106  112 1   
   113  107  109 1   
   114  107  113 1   
   115  107  114 1   
   116  108  115 1   
   117  108  116 1   
   118  108  117 1   
   119  109  118 1   
   120  109  119 1   
   121  109  120 1   
   122  121  122 1   
   123  121  127 1   
   124  122  123 1   
   125  122  125 1   
   126  122  128 1   
   127  123  124 2   
   128  123  132 1   
   129  125  126 1   
   130  125  129 1   
   131  125  130 1   
   132  126  131 1   
   133  132  133 1   
   134  132  137 1   
   135  133  134 1   
   136  133  136 1   
   137  133  138 1   
   138  134  135 2   
   139  134  142 1   
   140  136  139 1   
   141  136  140 1   
   142  136  141 1   
   143  142  143 1   
   144  142  147 1   
   145  143  144 1   
   146  143  146 1   
   147  143  148 1   
   148  144  145 2   
   149  144  152 1   
   150  146  149 1   
   151  146  150 1   
   152  146  151 1   
   153  152  153 1   
   154  152  161 1   
   155  153  154 1   
   156  153  156 1   
   157  153  162 1   
   158  154  155 2   
   159  154  167 1   
   160  156  157 1   
   161  156  163 1   
   162  156  164 1   
   163  157  158 1   
   164  157  165 1   
   165  157  166 1   
   166  158  159 1   
   167  158  160 1   
   168  167  168 1   
   169  167  172 1   
   170  168  169 1   
   171  168  170 1   
   172  168  171 1   
   173  174  175 1   
   174  174  176 1   
   175  177  179 1   
   176  177  181 1   
   177  178  180 1   
   178  178  182 1   
   179  183  184 1   
   180  183  185 1   
   181  186  187 1   
   182  186  188 1   
   183  189  190 1   
   184  189  191 1   
@<TRIPOS>SUBSTRUCTURE
     1 MOL         1 TEMP              0 ****  ****    0 ROOT
