@<TRIPOS>MOLECULE
MOL
  178   175     1     0     0
SMALL
resp


@<TRIPOS>ATOM
      1 C1          0.7350   -3.6420    4.2690 c3        1 MOL     -0.407510
      2 C2          2.1500   -4.0470    3.8960 c         1 MOL      0.719255
      3 O1          3.1710   -3.5370    4.3810 o         1 MOL     -0.630167
      4 H1          0.1020   -4.5290    4.3130 hc        1 MOL      0.105054
      5 H2          0.7410   -3.1520    5.2430 hc        1 MOL      0.105054
      6 H3          0.3440   -2.9540    3.5190 hc        1 MOL      0.105054
      7 N1          2.2980   -5.0530    3.0100 n         1 MOL     -0.632511
      8 C3          3.5930   -5.5920    2.4870 c3        1 MOL      0.274947
      9 C4          3.9820   -5.0750    1.1490 c         1 MOL      0.816025
     10 O2          3.1970   -4.6910    0.2640 o         1 MOL     -0.690552
     11 C5          3.6680   -7.1410    2.3940 c3        1 MOL     -0.306637
     12 C6          2.7290   -7.8470    1.4460 c         1 MOL      0.773472
     13 O3          3.2090   -8.1280    0.3200 o         1 MOL     -0.707527
     14 O4          1.5370   -8.1140    1.7330 o         1 MOL     -0.707527
     15 H4          1.4370   -5.4290    2.6260 hn        1 MOL      0.334810
     16 H5          4.4360   -5.4380    3.1750 h1        1 MOL      0.018619
     17 H6          3.3130   -7.4840    3.3740 hc        1 MOL      0.037558
     18 H7          4.7060   -7.4280    2.2570 hc        1 MOL      0.037558
     19 N2          5.3200   -4.9800    0.9110 n         1 MOL     -0.849889
     20 C7          5.8830   -4.6000   -0.3310 c3        1 MOL      0.496084
     21 C8          5.5180   -3.1230   -0.6030 c         1 MOL      0.417334
     22 O5          5.5210   -2.2600    0.3170 o         1 MOL     -0.538259
     23 C9          7.4430   -4.7650   -0.3440 c3        1 MOL     -0.292168
     24 H8          6.0170   -5.3310    1.5430 hn        1 MOL      0.354478
     25 H9          5.4750   -5.2970   -1.0610 h1        1 MOL     -0.017998
     26 H10         7.7320   -5.8010   -0.1720 hc        1 MOL      0.063573
     27 H11         7.8350   -4.4380   -1.3020 hc        1 MOL      0.063573
     28 H12         7.8050   -4.1010    0.4500 hc        1 MOL      0.063573
     29 N3          5.1620   -2.8880   -1.8480 n         1 MOL     -0.357027
     30 C10         4.6640   -1.5470   -2.3620 c3        1 MOL     -0.069241
     31 C11         5.8010   -0.6200   -2.8790 c         1 MOL      0.450206
     32 O6          6.7370   -1.1180   -3.5710 o         1 MOL     -0.525651
     33 C12         3.6210   -1.6590   -3.4930 c3        1 MOL      0.080141
     34 C13         2.5510   -2.6940   -3.2050 c         1 MOL      0.616593
     35 O7          2.1830   -2.7210   -1.9890 o         1 MOL     -0.676913
     36 O8          2.1260   -3.4400   -4.1000 o         1 MOL     -0.676913
     37 H13         5.5300   -3.5870   -2.4780 hn        1 MOL      0.258727
     38 H14         4.1510   -1.0850   -1.5100 h1        1 MOL      0.085798
     39 H15         4.1140   -1.8790   -4.4440 hc        1 MOL     -0.024939
     40 H16         3.1300   -0.6900   -3.5890 hc        1 MOL     -0.024939
     41 N4          5.8320    0.6890   -2.6770 n         1 MOL     -0.179138
     42 C14         6.7170    1.6320   -3.3700 c3        1 MOL     -0.425702
     43 C15         6.5580    3.1790   -3.2330 c         1 MOL      0.585677
     44 O9          7.2280    4.0410   -3.8550 o         1 MOL     -0.483902
     45 H17         5.2190    1.1060   -1.9870 hn        1 MOL      0.179160
     46 H18         6.5560    1.5710   -4.4390 h1        1 MOL      0.178150
     47 H19         7.7130    1.2720   -3.1030 h1        1 MOL      0.178150
     48 N5          5.6510    3.6450   -2.3530 n         1 MOL     -0.448239
     49 C16         5.3610    5.0690   -2.1320 c3        1 MOL     -0.184385
     50 C17         4.9450    5.4270   -0.7230 c         1 MOL      0.546449
     51 O10         4.9820    6.6270   -0.4600 o         1 MOL     -0.522132
     52 C18         4.2750    5.5840   -3.0100 c3        1 MOL     -0.081838
     53 C19         4.5310    5.3520   -4.4910 c         1 MOL      0.487656
     54 N6          4.0770    4.2470   -5.0750 n         1 MOL     -0.627823
     55 O11         5.1740    6.1390   -5.1460 o         1 MOL     -0.497406
     56 H20         4.9810    3.0440   -1.9050 hn        1 MOL      0.299884
     57 H21         6.2520    5.6610   -2.3600 h1        1 MOL      0.187675
     58 H22         4.0410    6.6310   -2.8380 hc        1 MOL      0.058152
     59 H23         3.3730    5.0260   -2.7700 hc        1 MOL      0.058152
     60 H24         3.4610    3.6250   -4.5680 hn        1 MOL      0.324985
     61 H25         4.1160    4.2630   -6.0910 hn        1 MOL      0.324985
     62 N7          4.8200    4.5100    0.2200 n         1 MOL     -0.245939
     63 C20         4.4310    4.6710    1.5660 c3        1 MOL     -0.415865
     64 C21         2.9190    5.1690    1.6700 c         1 MOL      0.686859
     65 O12         2.0840    4.7730    0.9260 o         1 MOL     -0.501472
     66 H26         5.1130    3.5710    0.0110 hn        1 MOL      0.269614
     67 H27         5.1560    5.3730    1.9830 h1        1 MOL      0.158960
     68 H28         4.5490    3.7270    2.1090 h1        1 MOL      0.158960
     69 N8          2.5950    6.0450    2.6220 n         1 MOL     -0.453985
     70 C22         1.2790    6.6570    2.7720 c3        1 MOL     -0.102971
     71 C23         0.0900    5.6610    2.8500 c         1 MOL      0.408296
     72 O13        -1.0510    6.0660    2.5920 o         1 MOL     -0.579723
     73 C24         1.2290    7.6320    3.9480 c3        1 MOL      0.305617
     74 C25         1.4090    6.8910    5.3420 c3        1 MOL     -0.224157
     75 O14         2.0410    8.8370    3.8610 oh        1 MOL     -0.603663
     76 H29         3.4170    6.4250    3.0680 hn        1 MOL      0.244060
     77 H30         1.0610    7.1550    1.8220 h1        1 MOL      0.146362
     78 H31         0.2450    8.1120    4.0060 h1        1 MOL      0.067883
     79 H32         2.8950    8.5860    4.2320 ho        1 MOL      0.383704
     80 H33         0.4110    6.6050    5.6530 hc        1 MOL      0.051214
     81 H34         2.0190    5.9870    5.3180 hc        1 MOL      0.051214
     82 H35         1.8340    7.5750    6.0660 hc        1 MOL      0.051214
     83 N9          0.2060    4.4130    3.2170 n         1 MOL     -0.047290
     84 C26        -0.8720    3.4590    3.3860 c3        1 MOL      0.004040
     85 C27        -0.7720    2.3420    2.3140 c         1 MOL      0.437495
     86 O15         0.3950    1.9850    1.9870 o         1 MOL     -0.513727
     87 C28        -0.7880    2.8010    4.8220 c3        1 MOL      0.240029
     88 C29        -0.7730    3.8280    6.0070 c3        1 MOL      0.102046
     89 C30        -1.8580    1.7220    5.1680 c3        1 MOL     -0.343799
     90 C31        -2.0000    4.6200    6.2720 c3        1 MOL     -0.285911
     91 H36         1.1170    4.0890    3.5120 hn        1 MOL      0.119379
     92 H37        -1.7980    4.0400    3.3940 h1        1 MOL      0.042377
     93 H38         0.1690    2.2770    4.8760 hc        1 MOL     -0.030268
     94 H39         0.1150    4.4500    5.8690 hc        1 MOL     -0.033061
     95 H40        -0.5920    3.2560    6.9110 hc        1 MOL     -0.033061
     96 H41        -1.7300    1.3940    6.2080 hc        1 MOL      0.085406
     97 H42        -2.8360    2.1350    4.9370 hc        1 MOL      0.085406
     98 H43        -1.6210    0.8350    4.5790 hc        1 MOL      0.085406
     99 H44        -2.8760    3.9680    6.2700 hc        1 MOL      0.067128
    100 H45        -1.8470    5.0880    7.2390 hc        1 MOL      0.067128
    101 H46        -2.0170    5.4840    5.6130 hc        1 MOL      0.067128
    102 N10        -1.8720    1.7950    1.8160 n         1 MOL     -0.423896
    103 C32        -1.8610    0.7210    0.8260 c3        1 MOL      0.231879
    104 C33        -2.9920    0.6030   -0.1870 c         1 MOL      0.465009
    105 O16        -3.4800   -0.4440   -0.5270 o         1 MOL     -0.385994
    106 C34        -1.7480   -0.5730    1.6150 c3        1 MOL     -0.295305
    107 C35        -1.1180   -1.7130    0.8850 c         1 MOL      0.694738
    108 O17        -0.4660   -1.5380   -0.1940 o         1 MOL     -0.727316
    109 O18        -1.1810   -2.8870    1.2940 o         1 MOL     -0.727316
    110 H47        -2.7270    2.2030    2.1580 hn        1 MOL      0.249509
    111 H48        -0.9560    0.8300    0.2270 h1        1 MOL      0.040929
    112 H49        -2.7190   -0.9030    1.9940 hc        1 MOL      0.091882
    113 H50        -1.1940   -0.4130    2.5420 hc        1 MOL      0.091882
    114 N11        -3.6420    1.7730   -0.3310 n         1 MOL     -0.494062
    115 C36        -4.8150    1.9830   -1.1920 c3        1 MOL      0.328989
    116 C37        -6.0000    0.9540   -0.8800 c         1 MOL      0.273517
    117 O19        -6.2770    0.7130    0.3050 o         1 MOL     -0.506711
    118 C38        -5.2900    3.4570   -1.2250 c3        1 MOL     -0.175242
    119 C39        -6.0570    3.8000   -2.4750 ca        1 MOL      0.113843
    120 C40        -7.4960    3.7670   -2.4910 ca        1 MOL     -0.217026
    121 C41        -5.3970    3.9960   -3.6990 ca        1 MOL     -0.217026
    122 C42        -8.1760    4.2880   -3.6170 ca        1 MOL     -0.088389
    123 C43        -6.1080    4.4270   -4.8500 ca        1 MOL     -0.088389
    124 C44        -7.4630    4.5350   -4.7810 ca        1 MOL     -0.109114
    125 H51        -3.1830    2.6010    0.0400 hn        1 MOL      0.235874
    126 H52        -4.4910    1.7150   -2.2010 h1        1 MOL     -0.032632
    127 H53        -4.4010    4.0850   -1.2000 hc        1 MOL      0.073662
    128 H54        -5.8740    3.7420   -0.3510 hc        1 MOL      0.073662
    129 H55        -8.0720    3.4200   -1.6470 ha        1 MOL      0.138183
    130 H56        -4.3230    4.0130   -3.7550 ha        1 MOL      0.138183
    131 H57        -9.2370    4.4960   -3.6290 ha        1 MOL      0.106637
    132 H58        -5.5990    4.6340   -5.7840 ha        1 MOL      0.106637
    133 H59        -7.9310    4.9910   -5.6470 ha        1 MOL      0.086517
    134 N12        -6.6010    0.2700   -1.9480 n         1 MOL      0.046759
    135 C45        -7.8100   -0.5250   -1.8250 c3        1 MOL     -0.065309
    136 C46        -7.4900   -1.8760   -0.9900 c         1 MOL      0.361725
    137 O20        -8.4760   -2.3350   -0.4100 o         1 MOL     -0.517215
    138 C47        -8.1370   -1.0010   -3.2450 c3        1 MOL      0.017355
    139 C48        -6.8520   -0.9490   -4.0030 c3        1 MOL     -0.018824
    140 C49        -6.1340    0.1740   -3.2770 c3        1 MOL     -0.200709
    141 H60        -8.6740    0.0450   -1.4720 h1        1 MOL      0.073061
    142 H61        -8.6910   -1.9340   -3.1930 hc        1 MOL      0.017696
    143 H62        -8.8360   -0.2720   -3.6680 hc        1 MOL      0.017696
    144 H63        -6.3340   -1.9060   -3.9820 hc        1 MOL      0.024080
    145 H64        -7.1080   -0.6850   -5.0250 hc        1 MOL      0.024080
    146 H65        -5.0830   -0.0960   -3.1810 h1        1 MOL      0.088005
    147 H66        -6.3350    1.0490   -3.9040 h1        1 MOL      0.088005
    148 N13        -6.2390   -2.3040   -0.8880 n         1 MOL     -0.132263
    149 C50        -5.8770   -3.4960   -0.1000 c3        1 MOL     -0.318873
    150 C51        -6.1450   -3.1980    1.4190 c         1 MOL      0.503589
    151 O21        -6.6320   -4.0880    2.1360 o         1 MOL     -0.534303
    152 C52        -4.3680   -3.9160   -0.1500 c3        1 MOL      0.037275
    153 C53        -3.7820   -4.0530   -1.5600 c3        1 MOL     -0.039660
    154 C54        -2.2910   -4.2890   -1.4480 c         1 MOL      0.681369
    155 O22        -1.5070   -3.7310   -2.1720 o         1 MOL     -0.728809
    156 O23        -1.8140   -5.2080   -0.6940 o         1 MOL     -0.728809
    157 H67        -5.5510   -1.7480   -1.3690 hn        1 MOL      0.241107
    158 H68        -6.4750   -4.3710   -0.3780 h1        1 MOL      0.162293
    159 H69        -4.2530   -4.8650    0.3810 hc        1 MOL      0.039257
    160 H70        -3.7000   -3.2320    0.3830 hc        1 MOL      0.039257
    161 H71        -3.9030   -3.1100   -2.0940 hc        1 MOL     -0.011951
    162 H72        -4.2390   -4.8520   -2.1410 hc        1 MOL     -0.011951
    163 N14        -5.9370   -1.9050    1.8770 n         1 MOL     -0.156690
    164 C55        -6.1540   -1.5010    3.2590 c3        1 MOL     -0.359294
    165 H73        -5.9610   -0.4330    3.3580 h1        1 MOL      0.119157
    166 H74        -7.1860   -1.7110    3.5410 h1        1 MOL      0.119157
    167 H75        -5.4790   -2.0550    3.9100 h1        1 MOL      0.119157
    168 H76        -5.6050   -1.2780    1.1590 hn        1 MOL      0.232597
    169 Ca1         0.6200   -3.9920   -0.3570 Ca        1 MOL      1.743848
    170 O24         1.6450   -6.6250   -1.2480 oh        1 MOL     -0.851567
    171 H77         2.1330   -7.3140   -0.7990 ho        1 MOL      0.409677
    172 H78         2.1590   -6.4390   -2.0320 ho        1 MOL      0.409677
    173 O25         2.1250   -2.2420    1.3780 oh        1 MOL     -0.851567
    174 H79         3.0380   -2.0810    1.6300 ho        1 MOL      0.409677
    175 H80         1.8110   -1.3860    1.0610 ho        1 MOL      0.409677
    176 O26        -0.0700   -5.9750    1.3660 oh        1 MOL     -0.851567
    177 H81         0.4210   -6.7940    1.3660 ho        1 MOL      0.409677
    178 H82        -0.8540   -6.1630    1.9000 ho        1 MOL      0.409677
@<TRIPOS>BOND
     1    1    2 1   
     2    1    4 1   
     3    1    5 1   
     4    1    6 1   
     5    2    3 2   
     6    2    7 1   
     7    7    8 1   
     8    7   15 1   
     9    8    9 1   
    10    8   11 1   
    11    8   16 1   
    12    9   10 2   
    13    9   19 1   
    14   11   12 1   
    15   11   17 1   
    16   11   18 1   
    17   12   13 1   
    18   12   14 1   
    19   19   20 1   
    20   19   24 1   
    21   20   21 1   
    22   20   23 1   
    23   20   25 1   
    24   21   22 2   
    25   21   29 1   
    26   23   26 1   
    27   23   27 1   
    28   23   28 1   
    29   29   30 1   
    30   29   37 1   
    31   30   31 1   
    32   30   33 1   
    33   30   38 1   
    34   31   32 2   
    35   31   41 1   
    36   33   34 1   
    37   33   39 1   
    38   33   40 1   
    39   34   35 1   
    40   34   36 1   
    41   41   42 1   
    42   41   45 1   
    43   42   43 1   
    44   42   46 1   
    45   42   47 1   
    46   43   44 2   
    47   43   48 1   
    48   48   49 1   
    49   48   56 1   
    50   49   50 1   
    51   49   52 1   
    52   49   57 1   
    53   50   51 2   
    54   50   62 1   
    55   52   53 1   
    56   52   58 1   
    57   52   59 1   
    58   53   54 1   
    59   53   55 2   
    60   54   60 1   
    61   54   61 1   
    62   62   63 1   
    63   62   66 1   
    64   63   64 1   
    65   63   67 1   
    66   63   68 1   
    67   64   65 2   
    68   64   69 1   
    69   69   70 1   
    70   69   76 1   
    71   70   71 1   
    72   70   73 1   
    73   70   77 1   
    74   71   72 2   
    75   71   83 1   
    76   73   74 1   
    77   73   75 1   
    78   73   78 1   
    79   74   80 1   
    80   74   81 1   
    81   74   82 1   
    82   75   79 1   
    83   83   84 1   
    84   83   91 1   
    85   84   85 1   
    86   84   87 1   
    87   84   92 1   
    88   85   86 2   
    89   85  102 1   
    90   87   88 1   
    91   87   89 1   
    92   87   93 1   
    93   88   90 1   
    94   88   94 1   
    95   88   95 1   
    96   89   96 1   
    97   89   97 1   
    98   89   98 1   
    99   90   99 1   
   100   90  100 1   
   101   90  101 1   
   102  102  103 1   
   103  102  110 1   
   104  103  104 1   
   105  103  106 1   
   106  103  111 1   
   107  104  105 2   
   108  104  114 1   
   109  106  107 1   
   110  106  112 1   
   111  106  113 1   
   112  107  108 1   
   113  107  109 1   
   114  114  115 1   
   115  114  125 1   
   116  115  116 1   
   117  115  118 1   
   118  115  126 1   
   119  116  117 2   
   120  116  134 1   
   121  118  119 1   
   122  118  127 1   
   123  118  128 1   
   124  119  120 ar  
   125  119  121 ar  
   126  120  122 ar  
   127  120  129 1   
   128  121  123 ar  
   129  121  130 1   
   130  122  124 ar  
   131  122  131 1   
   132  123  124 ar  
   133  123  132 1   
   134  124  133 1   
   135  134  135 1   
   136  134  140 1   
   137  135  136 1   
   138  135  138 1   
   139  135  141 1   
   140  136  137 2   
   141  136  148 1   
   142  138  139 1   
   143  138  142 1   
   144  138  143 1   
   145  139  140 1   
   146  139  144 1   
   147  139  145 1   
   148  140  146 1   
   149  140  147 1   
   150  148  149 1   
   151  148  157 1   
   152  149  150 1   
   153  149  152 1   
   154  149  158 1   
   155  150  151 2   
   156  150  163 1   
   157  152  153 1   
   158  152  159 1   
   159  152  160 1   
   160  153  154 1   
   161  153  161 1   
   162  153  162 1   
   163  154  155 1   
   164  154  156 1   
   165  163  164 1   
   166  163  168 1   
   167  164  165 1   
   168  164  166 1   
   169  164  167 1   
   170  170  171 1   
   171  170  172 1   
   172  173  174 1   
   173  173  175 1   
   174  176  177 1   
   175  176  178 1   
@<TRIPOS>SUBSTRUCTURE
     1 MOL         1 TEMP              0 ****  ****    0 ROOT
