@<TRIPOS>MOLECULE
MOL
  187   181     1     0     0
SMALL
resp


@<TRIPOS>ATOM
      1 C1         -2.2640    6.6730    2.2330 c3        1 MOL     -0.371564
      2 C2         -3.5700    6.7620    1.4160 c         1 MOL      0.607327
      3 O1         -3.6050    7.3030    0.2950 o         1 MOL     -0.567735
      4 H1         -1.4520    7.1350    1.6710 hc        1 MOL      0.096144
      5 H2         -2.3920    7.1940    3.1810 hc        1 MOL      0.096144
      6 H3         -2.0230    5.6260    2.4220 hc        1 MOL      0.096144
      7 N1         -4.7130    6.3750    1.9980 n         1 MOL     -0.402264
      8 C3         -5.9140    6.1550    1.1950 c3        1 MOL      0.021935
      9 C4         -5.9200    4.8690    0.2950 c         1 MOL      0.516462
     10 O2         -6.3490    3.7990    0.7340 o         1 MOL     -0.512782
     11 C5         -7.0820    6.0620    2.1550 c3        1 MOL     -0.303352
     12 C6         -8.4400    5.8130    1.4490 c         1 MOL      0.803412
     13 O3         -9.2830    5.0990    2.0100 o         1 MOL     -0.750355
     14 O4         -8.7390    6.4760    0.3880 o         1 MOL     -0.750355
     15 H4         -4.6570    5.9960    2.9370 hn        1 MOL      0.257737
     16 H5         -5.9750    7.0650    0.6000 h1        1 MOL      0.071609
     17 H6         -7.1070    6.8760    2.8770 hc        1 MOL      0.050080
     18 H7         -6.9170    5.1480    2.7180 hc        1 MOL      0.050080
     19 N2         -5.6450    4.9860   -1.0220 n         1 MOL     -0.569239
     20 C7         -5.6040    3.8690   -2.0080 c3        1 MOL      0.495394
     21 C8         -4.1470    3.3600   -2.1910 c         1 MOL      0.365823
     22 O5         -3.2190    3.9710   -1.7400 o         1 MOL     -0.502247
     23 C9         -6.2060    4.5150   -3.2430 c3        1 MOL     -0.364413
     24 H8         -5.4610    5.9410   -1.2930 hn        1 MOL      0.298971
     25 H9         -6.3380    3.0860   -1.7880 h1        1 MOL      0.012958
     26 H10        -7.1790    4.9240   -2.9930 hc        1 MOL      0.082796
     27 H11        -5.5280    5.3450   -3.4440 hc        1 MOL      0.082796
     28 H12        -6.2130    3.8740   -4.1230 hc        1 MOL      0.082796
     29 N3         -3.8710    2.2760   -2.9200 n         1 MOL     -0.285039
     30 C10        -4.8660    1.2140   -3.3230 c3        1 MOL     -0.203265
     31 C11        -4.9680    0.1160   -2.2110 c         1 MOL      0.547982
     32 O6         -4.2200    0.1070   -1.2280 o         1 MOL     -0.499814
     33 C12        -4.4750    0.6510   -4.7470 c3        1 MOL     -0.280893
     34 C13        -3.0040    0.0910   -4.8070 c         1 MOL      0.773077
     35 O7         -2.6710   -0.4930   -5.8430 o         1 MOL     -0.701116
     36 O8         -2.2530    0.2090   -3.8090 o         1 MOL     -0.701116
     37 H13        -2.9240    1.9480   -3.0010 hn        1 MOL      0.212163
     38 H14        -5.8170    1.7280   -3.4810 h1        1 MOL      0.119362
     39 H15        -4.4270    1.5270   -5.4050 hc        1 MOL      0.089046
     40 H16        -5.1860   -0.1020   -5.0830 hc        1 MOL      0.089046
     41 N4         -5.8260   -0.8830   -2.4950 n         1 MOL     -0.479566
     42 C14        -5.9680   -2.1010   -1.6540 c3        1 MOL     -0.088073
     43 C15        -7.0470   -1.9090   -0.5500 c         1 MOL      0.667663
     44 O9         -7.9150   -1.0260   -0.7110 o         1 MOL     -0.535993
     45 H17        -6.4870   -0.7540   -3.2480 hn        1 MOL      0.334556
     46 H18        -5.0040   -2.3340   -1.1980 h1        1 MOL      0.095152
     47 H19        -6.3190   -2.9440   -2.2440 h1        1 MOL      0.095152
     48 N5         -7.1000   -2.7760    0.4850 n         1 MOL     -0.742070
     49 C16        -6.0920   -3.7850    0.8750 c3        1 MOL      0.271293
     50 C17        -5.5730   -3.7320    2.2810 c         1 MOL      0.643461
     51 O10        -5.5130   -4.7840    2.9560 o         1 MOL     -0.540224
     52 C18        -6.7230   -5.1540    0.5450 c3        1 MOL     -0.495631
     53 C19        -6.9900   -5.2890   -1.0180 c         1 MOL      0.792229
     54 N6         -8.1800   -5.2290   -1.4280 n         1 MOL     -0.790291
     55 O11        -6.1140   -5.4010   -1.7940 o         1 MOL     -0.588772
     56 H20        -7.8530   -2.5900    1.1320 hn        1 MOL      0.365852
     57 H21        -5.1900   -3.8020    0.2640 h1        1 MOL      0.061130
     58 H22        -7.6560   -5.2730    1.0990 hc        1 MOL      0.127629
     59 H23        -6.0380   -5.9390    0.8760 hc        1 MOL      0.127629
     60 H24        -8.9380   -5.3620   -0.7730 hn        1 MOL      0.357811
     61 H25        -8.4940   -5.2210   -2.3880 hn        1 MOL      0.357811
     62 N7         -5.1490   -2.5700    2.7890 n         1 MOL     -0.544688
     63 C20        -4.6990   -2.5150    4.2150 c3        1 MOL     -0.077093
     64 C21        -3.2550   -3.0200    4.4690 c         1 MOL      0.480772
     65 O12        -2.8100   -3.2190    5.5870 o         1 MOL     -0.533614
     66 H26        -5.0170   -1.7430    2.2210 hn        1 MOL      0.350889
     67 H27        -5.4350   -3.1120    4.7730 h1        1 MOL      0.117407
     68 H28        -4.8220   -1.5150    4.6400 h1        1 MOL      0.117407
     69 N8         -2.5270   -3.3530    3.3460 n         1 MOL     -0.317406
     70 C22        -1.2550   -4.1130    3.3330 c3        1 MOL      0.059676
     71 C23        -0.1510   -3.1800    2.7320 c         1 MOL      0.556784
     72 O13        -0.4060   -2.1760    2.0440 o         1 MOL     -0.574749
     73 C24        -1.4780   -5.4970    2.6480 c3        1 MOL      0.387585
     74 C25        -2.1020   -6.5230    3.5790 c3        1 MOL     -0.388750
     75 O14        -2.4390   -5.4170    1.6020 oh        1 MOL     -0.562535
     76 H29        -2.9270   -3.1220    2.4470 hn        1 MOL      0.201468
     77 H30        -0.8920   -4.3430    4.3370 h1        1 MOL      0.059825
     78 H31        -0.5530   -5.9540    2.2830 h1        1 MOL     -0.006322
     79 H32        -1.9230   -5.4580    0.7940 ho        1 MOL      0.355717
     80 H33        -2.8040   -6.0190    4.2480 hc        1 MOL      0.097958
     81 H34        -2.4030   -7.4250    3.0440 hc        1 MOL      0.097958
     82 H35        -1.2930   -6.7080    4.2970 hc        1 MOL      0.097958
     83 N9          1.1010   -3.6440    2.8360 n         1 MOL     -0.516545
     84 C26         2.3160   -2.8390    2.4100 c3        1 MOL      0.052922
     85 C27         3.1090   -3.6560    1.4460 c         1 MOL      0.382984
     86 O15         3.4710   -4.8360    1.7160 o         1 MOL     -0.539835
     87 C28         3.1380   -2.3280    3.6400 c3        1 MOL      0.002785
     88 C29         4.4250   -1.5680    3.1400 c3        1 MOL     -0.035899
     89 C30         2.3210   -1.3860    4.5650 c3        1 MOL     -0.218967
     90 C31         5.2870   -1.0220    4.3060 c3        1 MOL     -0.147616
     91 H36         1.2790   -4.4600    3.4000 hn        1 MOL      0.285906
     92 H37         2.0070   -1.9280    1.9080 h1        1 MOL      0.075189
     93 H38         3.3690   -3.2300    4.1980 hc        1 MOL      0.022255
     94 H39         4.1320   -0.7400    2.5010 hc        1 MOL      0.086546
     95 H40         5.0860   -2.2630    2.6240 hc        1 MOL      0.086546
     96 H41         2.8080   -1.2240    5.5280 hc        1 MOL      0.066591
     97 H42         2.0920   -0.4480    4.0470 hc        1 MOL      0.066591
     98 H43         1.3530   -1.7750    4.8750 hc        1 MOL      0.066591
     99 H44         4.7020   -0.2240    4.7430 hc        1 MOL      0.023912
    100 H45         5.4210   -1.8010    5.0650 hc        1 MOL      0.023912
    101 H46         6.3020   -0.7680    3.9970 hc        1 MOL      0.023912
    102 N10         3.3060   -3.0560    0.2790 n         1 MOL     -0.424637
    103 C32         4.0180   -3.6140   -0.8610 c3        1 MOL      0.375636
    104 C33         5.1980   -2.7760   -1.4340 c         1 MOL      0.172609
    105 O16         5.6340   -2.9120   -2.5700 o         1 MOL     -0.483493
    106 C34         3.0340   -4.1090   -1.8990 c3        1 MOL     -0.076519
    107 C35         1.9310   -3.1290   -2.3310 c         1 MOL      0.669149
    108 O17         0.7190   -3.4470   -2.2810 o         1 MOL     -0.741635
    109 O18         2.2130   -2.0180   -2.7270 o         1 MOL     -0.741635
    110 H47         3.0250   -2.0830    0.3120 hn        1 MOL      0.372884
    111 H48         4.3570   -4.5770   -0.4730 h1        1 MOL     -0.004874
    112 H49         2.6240   -5.0630   -1.5450 hc        1 MOL      0.000313
    113 H50         3.6190   -4.4710   -2.7440 hc        1 MOL      0.000313
    114 N11         5.6170   -1.7790   -0.6760 n         1 MOL     -0.069301
    115 C36         6.6700   -0.8490   -0.9750 c3        1 MOL      0.328011
    116 C37         6.4910    0.4370   -0.1190 c         1 MOL      0.235806
    117 O19         6.1480    0.4090    1.0640 o         1 MOL     -0.457272
    118 C38         8.0060   -1.6130   -0.7490 c3        1 MOL     -0.366708
    119 C39         9.2160   -0.9850   -1.3880 ca        1 MOL      0.198777
    120 C40         9.4000   -1.0900   -2.7480 ca        1 MOL     -0.245308
    121 C41        10.0000   -0.0330   -0.6570 ca        1 MOL     -0.245308
    122 C42        10.3230   -0.2670   -3.4240 ca        1 MOL     -0.051764
    123 C43        10.9020    0.7790   -1.3700 ca        1 MOL     -0.051764
    124 C44        11.1800    0.6770   -2.7250 ca        1 MOL     -0.205796
    125 H51         5.1760   -1.7430    0.2280 hn        1 MOL     -0.019694
    126 H52         6.6050   -0.5140   -2.0060 h1        1 MOL      0.027459
    127 H53         7.8610   -2.5870   -1.2180 hc        1 MOL      0.117969
    128 H54         8.1450   -1.7420    0.3180 hc        1 MOL      0.117969
    129 H55         8.7440   -1.7790   -3.2360 ha        1 MOL      0.142431
    130 H56         9.8940   -0.0660    0.4240 ha        1 MOL      0.142431
    131 H57        10.3120   -0.3610   -4.4990 ha        1 MOL      0.093975
    132 H58        11.5150    1.4420   -0.7890 ha        1 MOL      0.093975
    133 H59        11.8850    1.3920   -3.1200 ha        1 MOL      0.135283
    134 N12         6.6990    1.6500   -0.6500 n         1 MOL     -0.027043
    135 C45         7.1390    2.7280    0.1390 c3        1 MOL      0.027321
    136 C46         6.0420    3.5080    0.8800 c         1 MOL      0.368437
    137 O20         6.0490    4.7130    0.9030 o         1 MOL     -0.526162
    138 C47         8.1120    3.5990   -0.7690 c3        1 MOL      0.190879
    139 C48         7.5200    3.3950   -2.2070 c3        1 MOL     -0.270738
    140 C49         6.9770    1.8980   -2.0760 c3        1 MOL      0.031802
    141 H60         7.7800    2.4340    0.9620 h1        1 MOL      0.007636
    142 H61         8.1900    4.6320   -0.4420 hc        1 MOL     -0.030133
    143 H62         9.1620    3.3170   -0.6830 hc        1 MOL     -0.030133
    144 H63         6.6640    4.0430   -2.3750 hc        1 MOL      0.084695
    145 H64         8.2830    3.5530   -2.9610 hc        1 MOL      0.084695
    146 H65         6.0750    1.7900   -2.6650 h1        1 MOL      0.056941
    147 H66         7.6460    1.2000   -2.5870 h1        1 MOL      0.056941
    148 N13         4.9820    2.8800    1.3930 n         1 MOL     -0.010719
    149 C50         3.8110    3.4530    2.0990 c3        1 MOL     -0.180682
    150 C51         4.1630    4.2770    3.3280 c         1 MOL      0.430595
    151 O21         3.5100    5.3070    3.6630 o         1 MOL     -0.534478
    152 C52         2.7640    2.3280    2.5380 c3        1 MOL      0.103403
    153 C53         1.9510    1.7670    1.3150 c3        1 MOL     -0.116103
    154 C54         2.7510    1.1060    0.2380 c         1 MOL      0.538100
    155 O22         3.1800    1.8050   -0.7110 o         1 MOL     -0.618571
    156 O23         2.8520   -0.0990    0.2180 o         1 MOL     -0.618571
    157 H67         4.9850    1.8760    1.4150 hn        1 MOL      0.046002
    158 H68         3.3110    4.0300    1.3140 h1        1 MOL      0.141211
    159 H69         2.1330    2.7060    3.3460 hc        1 MOL      0.003289
    160 H70         3.3060    1.5180    3.0220 hc        1 MOL      0.003289
    161 H71         1.5250    2.6900    0.9040 hc        1 MOL      0.029048
    162 H72         1.1270    1.1020    1.5590 hc        1 MOL      0.029048
    163 N14         5.2670    3.9300    3.9880 n         1 MOL     -0.187950
    164 C55         5.8070    4.6670    5.1400 c3        1 MOL     -0.158351
    165 H73         5.6590    4.0810    6.0470 h1        1 MOL      0.078746
    166 H74         6.8730    4.8430    4.9920 h1        1 MOL      0.078746
    167 H75         5.2900    5.6220    5.2360 h1        1 MOL      0.078746
    168 H76         5.6930    3.0720    3.6640 hn        1 MOL      0.197709
    169 Ca1        -0.2400   -0.8840   -2.7520 Ca        1 MOL      1.722362
    170 O24         0.6480   -1.2800   -0.4040 oh        1 MOL     -0.767442
    171 O25        -1.6520    0.5520   -1.0180 oh        1 MOL     -0.767442
    172 H77         1.4880   -0.9110   -0.1400 ho        1 MOL      0.375904
    173 H78        -1.6220    1.3370   -0.4630 ho        1 MOL      0.375904
    174 H79         0.2190   -1.5190    0.4100 ho        1 MOL      0.375904
    175 H80        -2.5840    0.3670   -1.1150 ho        1 MOL      0.375904
    176 O26         0.9400   -0.0560   -5.1330 oh        1 MOL     -0.767442
    177 H81         1.3670    0.7610   -5.3750 ho        1 MOL      0.375904
    178 H82         1.3010   -0.7110   -5.7320 ho        1 MOL      0.375904
    179 O27        -0.9990   -2.5740   -4.8960 oh        1 MOL     -0.767442
    180 H83        -1.4550   -3.4170   -4.9820 ho        1 MOL      0.375904
    181 H84        -1.6790   -1.9250   -5.0420 ho        1 MOL      0.375904
    182 O28         1.1040    1.2410   -2.4880 oh        1 MOL     -0.767442
    183 H85         1.8710    1.6300   -2.0750 ho        1 MOL      0.375904
    184 H86         0.5070    1.9730   -2.6280 ho        1 MOL      0.375904
    185 O29        -2.1590   -2.5890   -2.0160 oh        1 MOL     -0.767442
    186 H87        -2.0720   -3.3960   -1.5050 ho        1 MOL      0.375904
    187 H88        -2.8790   -2.7660   -2.6270 ho        1 MOL      0.375904
@<TRIPOS>BOND
     1    1    2 1   
     2    1    4 1   
     3    1    5 1   
     4    1    6 1   
     5    2    3 2   
     6    2    7 1   
     7    7    8 1   
     8    7   15 1   
     9    8    9 1   
    10    8   11 1   
    11    8   16 1   
    12    9   10 2   
    13    9   19 1   
    14   11   12 1   
    15   11   17 1   
    16   11   18 1   
    17   12   13 1   
    18   12   14 1   
    19   19   20 1   
    20   19   24 1   
    21   20   21 1   
    22   20   23 1   
    23   20   25 1   
    24   21   22 2   
    25   21   29 1   
    26   23   26 1   
    27   23   27 1   
    28   23   28 1   
    29   29   30 1   
    30   29   37 1   
    31   30   31 1   
    32   30   33 1   
    33   30   38 1   
    34   31   32 2   
    35   31   41 1   
    36   33   34 1   
    37   33   39 1   
    38   33   40 1   
    39   34   35 1   
    40   34   36 1   
    41   41   42 1   
    42   41   45 1   
    43   42   43 1   
    44   42   46 1   
    45   42   47 1   
    46   43   44 2   
    47   43   48 1   
    48   48   49 1   
    49   48   56 1   
    50   49   50 1   
    51   49   52 1   
    52   49   57 1   
    53   50   51 2   
    54   50   62 1   
    55   52   53 1   
    56   52   58 1   
    57   52   59 1   
    58   53   54 1   
    59   53   55 2   
    60   54   60 1   
    61   54   61 1   
    62   62   63 1   
    63   62   66 1   
    64   63   64 1   
    65   63   67 1   
    66   63   68 1   
    67   64   65 2   
    68   64   69 1   
    69   69   70 1   
    70   69   76 1   
    71   70   71 1   
    72   70   73 1   
    73   70   77 1   
    74   71   72 2   
    75   71   83 1   
    76   73   74 1   
    77   73   75 1   
    78   73   78 1   
    79   74   80 1   
    80   74   81 1   
    81   74   82 1   
    82   75   79 1   
    83   83   84 1   
    84   83   91 1   
    85   84   85 1   
    86   84   87 1   
    87   84   92 1   
    88   85   86 2   
    89   85  102 1   
    90   87   88 1   
    91   87   89 1   
    92   87   93 1   
    93   88   90 1   
    94   88   94 1   
    95   88   95 1   
    96   89   96 1   
    97   89   97 1   
    98   89   98 1   
    99   90   99 1   
   100   90  100 1   
   101   90  101 1   
   102  102  103 1   
   103  102  110 1   
   104  103  104 1   
   105  103  106 1   
   106  103  111 1   
   107  104  105 2   
   108  104  114 1   
   109  106  107 1   
   110  106  112 1   
   111  106  113 1   
   112  107  108 1   
   113  107  109 1   
   114  114  115 1   
   115  114  125 1   
   116  115  116 1   
   117  115  118 1   
   118  115  126 1   
   119  116  117 2   
   120  116  134 1   
   121  118  119 1   
   122  118  127 1   
   123  118  128 1   
   124  119  120 ar  
   125  119  121 ar  
   126  120  122 ar  
   127  120  129 1   
   128  121  123 ar  
   129  121  130 1   
   130  122  124 ar  
   131  122  131 1   
   132  123  124 ar  
   133  123  132 1   
   134  124  133 1   
   135  134  135 1   
   136  134  140 1   
   137  135  136 1   
   138  135  138 1   
   139  135  141 1   
   140  136  137 2   
   141  136  148 1   
   142  138  139 1   
   143  138  142 1   
   144  138  143 1   
   145  139  140 1   
   146  139  144 1   
   147  139  145 1   
   148  140  146 1   
   149  140  147 1   
   150  148  149 1   
   151  148  157 1   
   152  149  150 1   
   153  149  152 1   
   154  149  158 1   
   155  150  151 2   
   156  150  163 1   
   157  152  153 1   
   158  152  159 1   
   159  152  160 1   
   160  153  154 1   
   161  153  161 1   
   162  153  162 1   
   163  154  155 1   
   164  154  156 1   
   165  163  164 1   
   166  163  168 1   
   167  164  165 1   
   168  164  166 1   
   169  164  167 1   
   170  170  172 1   
   171  170  174 1   
   172  171  173 1   
   173  171  175 1   
   174  176  177 1   
   175  176  178 1   
   176  179  180 1   
   177  179  181 1   
   178  182  183 1   
   179  182  184 1   
   180  185  186 1   
   181  185  187 1   
@<TRIPOS>SUBSTRUCTURE
     1 MOL         1 TEMP              0 ****  ****    0 ROOT
