@<TRIPOS>MOLECULE
MOL
  188   182     1     0     0
SMALL
resp


@<TRIPOS>ATOM
      1 C1         -6.5490   -0.5820    3.3530 c3        1 MOL     -0.444662
      2 C2         -7.0570   -1.0110    1.9100 c         1 MOL      0.576650
      3 O1         -6.3160   -0.9940    0.9480 o         1 MOL     -0.475093
      4 H1         -7.3930   -0.5540    4.0410 hc        1 MOL      0.111268
      5 H2         -5.8150   -1.3050    3.7090 hc        1 MOL      0.111268
      6 H3         -6.0910    0.4050    3.2990 hc        1 MOL      0.111268
      7 N1         -8.3540   -1.3030    1.8380 n         1 MOL     -0.432448
      8 C3         -9.0550   -1.5250    0.5650 c3        1 MOL      0.213528
      9 C4         -8.8550   -0.3240   -0.3860 c         1 MOL      0.355688
     10 O2         -8.5680   -0.5300   -1.5970 o         1 MOL     -0.450445
     11 C5         -8.9000   -2.9790    0.0330 c3        1 MOL     -0.241399
     12 C6        -10.1220   -3.5730   -0.5710 c         1 MOL      0.661708
     13 O3        -11.1370   -2.8550   -0.7990 o         1 MOL     -0.638703
     14 O4        -10.1710   -4.7810   -0.9650 o         1 MOL     -0.638703
     15 H4         -8.9500   -1.2670    2.6530 hn        1 MOL      0.295469
     16 H5        -10.0890   -1.3980    0.8820 h1        1 MOL     -0.029252
     17 H6         -8.5430   -3.5820    0.8590 hc        1 MOL      0.080016
     18 H7         -8.0320   -2.9730   -0.6190 hc        1 MOL      0.080016
     19 N2         -8.7350    0.8820    0.0930 n         1 MOL     -0.320409
     20 C7         -8.5470    2.1300   -0.6810 c3        1 MOL     -0.094101
     21 C8         -7.0840    2.3650   -1.0640 c         1 MOL      0.519809
     22 O5         -6.7670    3.3130   -1.8230 o         1 MOL     -0.572555
     23 C9         -8.9280    3.2670    0.3690 c3        1 MOL      0.036811
     24 C10       -10.3730    3.1200    0.8190 c3        1 MOL     -0.009915
     25 C11       -10.9680    4.4350    1.3260 c3        1 MOL     -0.076392
     26 C12       -12.3230    4.0860    1.8660 c3        1 MOL      0.049618
     27 N3        -13.1420    3.5970    0.6940 n4        1 MOL     -0.246461
     28 H8         -8.9510    0.9540    1.0720 hn        1 MOL      0.174713
     29 H9         -9.1790    2.1560   -1.5600 h1        1 MOL      0.145815
     30 H10        -8.7170    4.2460   -0.0790 hc        1 MOL      0.028407
     31 H11        -8.2280    3.2250    1.2020 hc        1 MOL      0.028407
     32 H12       -10.5310    2.3570    1.5870 hc        1 MOL      0.028677
     33 H13       -10.8370    2.7890   -0.1140 hc        1 MOL      0.028677
     34 H14       -11.1060    5.1790    0.5380 hc        1 MOL      0.053953
     35 H15       -10.3030    4.7770    2.1280 hc        1 MOL      0.053953
     36 H16       -12.8050    4.9290    2.3590 hx        1 MOL      0.068715
     37 H17       -12.2430    3.2380    2.5440 hx        1 MOL      0.068715
     38 H18       -13.1260    4.2070   -0.1060 hn        1 MOL      0.248382
     39 H19       -12.9340    2.6390    0.4350 hn        1 MOL      0.248382
     40 H20       -14.0750    3.6880    1.0710 hn        1 MOL      0.248382
     41 N4         -6.1780    1.6460   -0.4030 n         1 MOL     -0.334869
     42 C13        -4.6950    1.7450   -0.6980 c3        1 MOL     -0.016627
     43 C14        -4.4130    1.4440   -2.1660 c         1 MOL      0.796143
     44 O6         -4.7270    0.3790   -2.6770 o         1 MOL     -0.502844
     45 C15        -3.9260    0.9110    0.1770 c3        1 MOL     -0.354711
     46 C16        -2.4080    1.1860    0.0170 c         1 MOL      0.752627
     47 O7         -1.7490    0.5430   -0.8260 o         1 MOL     -0.722960
     48 O8         -1.9050    2.0720    0.7390 o         1 MOL     -0.722960
     49 H21        -6.5670    0.8650    0.1060 hn        1 MOL      0.211877
     50 H22        -4.3970    2.7790   -0.5580 h1        1 MOL      0.031344
     51 H23        -4.1320   -0.1280   -0.0600 hc        1 MOL      0.119274
     52 H24        -4.2310    1.0370    1.2170 hc        1 MOL      0.119274
     53 N5         -3.6830    2.3670   -2.8550 n         1 MOL     -0.529716
     54 C17        -3.3420    2.2280   -4.3020 c3        1 MOL     -0.054118
     55 C18        -2.6190    0.8530   -4.7280 c         1 MOL      0.467652
     56 O9         -2.7590    0.4010   -5.8720 o         1 MOL     -0.539849
     57 H25        -3.1530    3.0630   -2.3600 hn        1 MOL      0.324561
     58 H26        -2.5850    2.9780   -4.5070 h1        1 MOL      0.075785
     59 H27        -4.2560    2.3660   -4.8810 h1        1 MOL      0.075785
     60 N6         -1.9430    0.2320   -3.7980 n         1 MOL     -0.110569
     61 C19        -1.3760   -1.1080   -4.0100 c3        1 MOL     -0.067642
     62 C20        -1.6360   -2.1060   -2.8520 c         1 MOL      0.498268
     63 O10        -0.8570   -3.0210   -2.6550 o         1 MOL     -0.508944
     64 C21         0.0950   -0.9110   -4.4080 c3        1 MOL     -0.313585
     65 C22         1.0580   -0.5500   -3.3080 c         1 MOL      0.706657
     66 N7          2.3520   -0.8570   -3.5240 n         1 MOL     -0.832039
     67 O11         0.6950   -0.0100   -2.3420 o         1 MOL     -0.560504
     68 H28        -1.7390    0.7440   -2.9480 hn        1 MOL      0.047249
     69 H29        -1.8790   -1.4570   -4.9050 h1        1 MOL      0.141905
     70 H30         0.2220   -0.2440   -5.2560 hc        1 MOL      0.111265
     71 H31         0.4550   -1.8940   -4.7190 hc        1 MOL      0.111265
     72 H32         2.6840   -1.0560   -4.4600 hn        1 MOL      0.363842
     73 H33         3.0320   -0.7470   -2.7920 hn        1 MOL      0.363842
     74 N8         -2.7690   -1.9870   -2.1420 n         1 MOL     -0.284669
     75 C23        -3.2990   -2.9470   -1.0730 c3        1 MOL     -0.281761
     76 C24        -2.5750   -2.9540    0.2170 c         1 MOL      0.577962
     77 O12        -2.7660   -3.8540    1.0170 o         1 MOL     -0.568780
     78 H34        -3.2630   -1.1040   -2.1720 hn        1 MOL      0.181550
     79 H35        -3.1790   -3.9510   -1.4980 h1        1 MOL      0.172828
     80 H36        -4.3630   -2.7450   -1.0220 h1        1 MOL      0.172828
     81 N9         -1.6680   -2.0470    0.4450 n         1 MOL     -0.285043
     82 C25        -0.9600   -1.9780    1.7840 c3        1 MOL     -0.046814
     83 C26         0.4130   -1.3350    1.5630 c         1 MOL      0.275486
     84 O13         0.5210   -0.3350    0.8680 o         1 MOL     -0.340936
     85 C27        -1.7690   -1.1370    2.8050 c3        1 MOL     -0.238819
     86 C28        -1.0040   -0.8140    4.1010 ca        1 MOL      0.021321
     87 C29        -0.6000   -1.9070    4.9510 ca        1 MOL     -0.104588
     88 C30        -0.7560    0.4560    4.4950 ca        1 MOL     -0.104588
     89 C31        -0.0070   -1.6210    6.1680 ca        1 MOL     -0.360502
     90 C32        -0.1350    0.7590    5.7180 ca        1 MOL     -0.360502
     91 C33         0.2300   -0.3110    6.5300 ca        1 MOL      0.491749
     92 O14         0.8330   -0.0220    7.7010 oh        1 MOL     -0.549527
     93 H37        -1.6100   -1.2820   -0.2140 hn        1 MOL      0.252598
     94 H38        -0.7340   -2.9150    2.2780 h1        1 MOL      0.085604
     95 H39        -2.6240   -1.7370    3.1290 hc        1 MOL      0.140349
     96 H40        -2.0520   -0.2160    2.3010 hc        1 MOL      0.140349
     97 H41        -0.9280   -2.9310    4.8370 ha        1 MOL      0.148427
     98 H42        -0.8320    1.2280    3.7330 ha        1 MOL      0.148427
     99 H43         0.2630   -2.3690    6.8950 ha        1 MOL      0.167780
    100 H44         0.1970    1.7720    5.8670 ha        1 MOL      0.167780
    101 H45         0.8990    0.8950    7.9800 ho        1 MOL      0.391489
    102 N10         1.4780   -1.9510    2.1080 n         1 MOL     -0.312128
    103 C34         2.9100   -1.6480    1.8770 c3        1 MOL      0.007228
    104 C35         3.3980   -2.1810    0.5540 c         1 MOL      0.483298
    105 O15         3.9200   -1.3970   -0.2360 o         1 MOL     -0.461345
    106 C36         3.7380   -2.1550    3.0850 c3        1 MOL     -0.014263
    107 C37         3.3210   -1.3440    4.3660 c3        1 MOL      0.079454
    108 C38         5.2540   -1.9200    2.8560 c3        1 MOL     -0.299627
    109 C39         3.4690    0.1760    4.3360 c3        1 MOL     -0.022121
    110 H46         1.2560   -2.6930    2.7670 hn        1 MOL      0.245925
    111 H47         3.1160   -0.5840    1.9160 h1        1 MOL      0.057963
    112 H48         3.6380   -3.2340    3.2500 hc        1 MOL      0.020862
    113 H49         3.9540   -1.7410    5.1560 hc        1 MOL      0.004911
    114 H50         2.2730   -1.5720    4.5980 hc        1 MOL      0.004911
    115 H51         5.8400   -2.0410    3.7710 hc        1 MOL      0.098710
    116 H52         5.6000   -2.6310    2.1100 hc        1 MOL      0.098710
    117 H53         5.4790   -0.9080    2.5170 hc        1 MOL      0.098710
    118 H54         3.1100    0.5570    5.2920 hc        1 MOL      0.006640
    119 H55         4.5180    0.4530    4.2010 hc        1 MOL      0.006640
    120 H56         2.8480    0.6730    3.5950 hc        1 MOL      0.006640
    121 N11         3.1780   -3.4510    0.1630 n         1 MOL     -0.146539
    122 C40         3.4570   -3.7420   -1.2600 c3        1 MOL     -0.301866
    123 C41         5.0020   -3.7880   -1.6720 c         1 MOL      0.586197
    124 O16         5.4100   -3.6540   -2.8070 o         1 MOL     -0.508079
    125 C42         2.8680   -5.0620   -1.6510 c3        1 MOL      0.226785
    126 O17         3.4470   -6.0220   -0.7430 oh        1 MOL     -0.613415
    127 H57         2.8390   -4.1630    0.7830 hn        1 MOL      0.224121
    128 H58         2.9680   -2.9940   -1.8920 h1        1 MOL      0.153027
    129 H59         3.0510   -5.2880   -2.7010 h1        1 MOL      0.039903
    130 H60         1.7870   -4.9570   -1.5800 h1        1 MOL      0.039903
    131 H61         2.8440   -6.7730   -0.7070 ho        1 MOL      0.408448
    132 N12         5.8400   -4.0450   -0.6300 n         1 MOL     -0.343933
    133 C43         7.3100   -3.9800   -0.6580 c3        1 MOL      0.282761
    134 C44         7.9840   -2.6190   -1.1590 c         1 MOL      0.460853
    135 O18         9.1220   -2.6260   -1.6070 o         1 MOL     -0.522995
    136 C45         7.8380   -5.2050   -1.3980 c3        1 MOL     -0.480191
    137 H62         5.4330   -4.1470    0.2850 hn        1 MOL      0.195836
    138 H63         7.7420   -4.0340    0.3480 h1        1 MOL      0.013555
    139 H64         7.3040   -6.0800   -1.0580 hc        1 MOL      0.134594
    140 H65         7.7180   -4.9750   -2.4590 hc        1 MOL      0.134594
    141 H66         8.8970   -5.2890   -1.1480 hc        1 MOL      0.134594
    142 N13         7.2920   -1.4770   -1.0350 n         1 MOL     -0.344772
    143 C46         7.5570   -0.2580   -1.6920 c3        1 MOL      0.305809
    144 C47         7.8430    0.8730   -0.6540 c         1 MOL      0.449067
    145 O19         7.2650    0.8820    0.4060 o         1 MOL     -0.475175
    146 C48         6.3810    0.1030   -2.6290 c3        1 MOL     -0.089829
    147 H67         6.4970   -1.5270   -0.4160 hn        1 MOL      0.060131
    148 H68         8.3830   -0.4330   -2.3870 h1        1 MOL     -0.007465
    149 H69         5.5760    0.4630   -1.9870 hc        1 MOL      0.017526
    150 H70         6.6270    0.9120   -3.3120 hc        1 MOL      0.017526
    151 H71         5.9570   -0.7480   -3.1500 hc        1 MOL      0.017526
    152 N14         8.7120    1.7370   -1.1100 n         1 MOL     -0.602841
    153 C49         9.3250    2.8450   -0.4010 c3        1 MOL     -0.001026
    154 C50         9.8860    2.4330    1.0050 c         1 MOL      0.437023
    155 O20         9.9100    3.2270    1.9590 o         1 MOL     -0.454145
    156 C51         8.3670    4.0400   -0.4120 c3        1 MOL      0.128504
    157 C52         8.9420    5.3850    0.0930 c3        1 MOL     -0.300637
    158 C53        10.2180    5.7400   -0.5280 c         1 MOL      0.737160
    159 O21        10.1390    6.1020   -1.7420 o         1 MOL     -0.655648
    160 O22        11.3560    5.6830    0.0110 o         1 MOL     -0.655648
    161 H72         9.0810    1.6720   -2.0490 hn        1 MOL      0.356036
    162 H73        10.1230    3.0910   -1.1080 h1        1 MOL      0.108446
    163 H74         7.5240    3.8950    0.2590 hc        1 MOL     -0.009072
    164 H75         7.9720    4.1620   -1.4240 hc        1 MOL     -0.009072
    165 H76         9.2210    5.3320    1.1520 hc        1 MOL      0.058131
    166 H77         8.1400    6.1070   -0.0270 hc        1 MOL      0.058131
    167 N15        10.3770    1.2140    1.2060 n         1 MOL     -0.239275
    168 C54        10.7140    0.7130    2.5410 c3        1 MOL     -0.209204
    169 H78         9.8800    0.8970    3.2190 h1        1 MOL      0.100808
    170 H79        10.9110   -0.3580    2.4900 h1        1 MOL      0.100808
    171 H80        11.6010    1.2280    2.9100 h1        1 MOL      0.100808
    172 H81        10.3770    0.5620    0.4390 hn        1 MOL      0.223841
    173 Ca1         0.4940    1.9340   -0.3400 Ca        1 MOL      1.723524
    174 O23         3.1070    1.0640   -0.5100 oh        1 MOL     -0.801269
    175 H82         3.6470    0.2770   -0.3990 ho        1 MOL      0.371565
    176 H83         3.7220    1.7910   -0.4110 ho        1 MOL      0.371565
    177 O24         0.3630    4.4830    0.3940 oh        1 MOL     -0.801269
    178 H84         1.0450    4.8240    0.9660 ho        1 MOL      0.371565
    179 H85         0.2210    5.1710   -0.2520 ho        1 MOL      0.371565
    180 O25         1.4840    2.0140    2.2400 oh        1 MOL     -0.801269
    181 H86         2.3070    1.8650    2.6970 ho        1 MOL      0.371565
    182 H87         0.9760    2.5670    2.8300 ho        1 MOL      0.371565
    183 O26         2.1290    3.3480   -1.9900 oh        1 MOL     -0.801269
    184 H88         2.0500    4.2620   -2.2710 ho        1 MOL      0.371565
    185 H89         2.3750    2.8700   -2.7880 ho        1 MOL      0.371565
    186 O27        -0.8930    3.2010   -2.3100 oh        1 MOL     -0.801269
    187 H90        -0.6210    2.9890   -3.2040 ho        1 MOL      0.371565
    188 H91        -0.7260    4.1410   -2.2390 ho        1 MOL      0.371565
@<TRIPOS>BOND
     1    1    2 1   
     2    1    4 1   
     3    1    5 1   
     4    1    6 1   
     5    2    3 2   
     6    2    7 1   
     7    7    8 1   
     8    7   15 1   
     9    8    9 1   
    10    8   11 1   
    11    8   16 1   
    12    9   10 2   
    13    9   19 1   
    14   11   12 1   
    15   11   17 1   
    16   11   18 1   
    17   12   13 1   
    18   12   14 1   
    19   19   20 1   
    20   19   28 1   
    21   20   21 1   
    22   20   23 1   
    23   20   29 1   
    24   21   22 2   
    25   21   41 1   
    26   23   24 1   
    27   23   30 1   
    28   23   31 1   
    29   24   25 1   
    30   24   32 1   
    31   24   33 1   
    32   25   26 1   
    33   25   34 1   
    34   25   35 1   
    35   26   27 1   
    36   26   36 1   
    37   26   37 1   
    38   27   38 1   
    39   27   39 1   
    40   27   40 1   
    41   41   42 1   
    42   41   49 1   
    43   42   43 1   
    44   42   45 1   
    45   42   50 1   
    46   43   44 2   
    47   43   53 1   
    48   45   46 1   
    49   45   51 1   
    50   45   52 1   
    51   46   47 1   
    52   46   48 1   
    53   53   54 1   
    54   53   57 1   
    55   54   55 1   
    56   54   58 1   
    57   54   59 1   
    58   55   56 2   
    59   55   60 1   
    60   60   61 1   
    61   60   68 1   
    62   61   62 1   
    63   61   64 1   
    64   61   69 1   
    65   62   63 2   
    66   62   74 1   
    67   64   65 1   
    68   64   70 1   
    69   64   71 1   
    70   65   66 1   
    71   65   67 2   
    72   66   72 1   
    73   66   73 1   
    74   74   75 1   
    75   74   78 1   
    76   75   76 1   
    77   75   79 1   
    78   75   80 1   
    79   76   77 2   
    80   76   81 1   
    81   81   82 1   
    82   81   93 1   
    83   82   83 1   
    84   82   85 1   
    85   82   94 1   
    86   83   84 2   
    87   83  102 1   
    88   85   86 1   
    89   85   95 1   
    90   85   96 1   
    91   86   87 ar  
    92   86   88 ar  
    93   87   89 ar  
    94   87   97 1   
    95   88   90 ar  
    96   88   98 1   
    97   89   91 ar  
    98   89   99 1   
    99   90   91 ar  
   100   90  100 1   
   101   91   92 1   
   102   92  101 1   
   103  102  103 1   
   104  102  110 1   
   105  103  104 1   
   106  103  106 1   
   107  103  111 1   
   108  104  105 2   
   109  104  121 1   
   110  106  107 1   
   111  106  108 1   
   112  106  112 1   
   113  107  109 1   
   114  107  113 1   
   115  107  114 1   
   116  108  115 1   
   117  108  116 1   
   118  108  117 1   
   119  109  118 1   
   120  109  119 1   
   121  109  120 1   
   122  121  122 1   
   123  121  127 1   
   124  122  123 1   
   125  122  125 1   
   126  122  128 1   
   127  123  124 2   
   128  123  132 1   
   129  125  126 1   
   130  125  129 1   
   131  125  130 1   
   132  126  131 1   
   133  132  133 1   
   134  132  137 1   
   135  133  134 1   
   136  133  136 1   
   137  133  138 1   
   138  134  135 2   
   139  134  142 1   
   140  136  139 1   
   141  136  140 1   
   142  136  141 1   
   143  142  143 1   
   144  142  147 1   
   145  143  144 1   
   146  143  146 1   
   147  143  148 1   
   148  144  145 2   
   149  144  152 1   
   150  146  149 1   
   151  146  150 1   
   152  146  151 1   
   153  152  153 1   
   154  152  161 1   
   155  153  154 1   
   156  153  156 1   
   157  153  162 1   
   158  154  155 2   
   159  154  167 1   
   160  156  157 1   
   161  156  163 1   
   162  156  164 1   
   163  157  158 1   
   164  157  165 1   
   165  157  166 1   
   166  158  159 1   
   167  158  160 1   
   168  167  168 1   
   169  167  172 1   
   170  168  169 1   
   171  168  170 1   
   172  168  171 1   
   173  174  175 1   
   174  174  176 1   
   175  177  178 1   
   176  177  179 1   
   177  180  181 1   
   178  180  182 1   
   179  183  184 1   
   180  183  185 1   
   181  186  187 1   
   182  186  188 1   
@<TRIPOS>SUBSTRUCTURE
     1 MOL         1 TEMP              0 ****  ****    0 ROOT
