@<TRIPOS>MOLECULE
MOL
  186   183     1     0     0
SMALL
resp


@<TRIPOS>ATOM
      1 C1        -11.6630    5.0190    3.8750 c3        1 MOL     -0.451824
      2 C2        -11.9490    4.1720    2.6400 c         1 MOL      0.656278
      3 O1        -12.7400    3.2320    2.6620 o         1 MOL     -0.607670
      4 H1        -11.1280    5.9210    3.5810 hc        1 MOL      0.120219
      5 H2        -12.6030    5.2930    4.3530 hc        1 MOL      0.120219
      6 H3        -11.0520    4.4470    4.5750 hc        1 MOL      0.120219
      7 N1        -11.3520    4.5320    1.5130 n         1 MOL     -0.157180
      8 C3        -11.2130    3.7900    0.2450 c3        1 MOL     -0.754932
      9 C4        -10.3310    2.5820    0.3140 c         1 MOL      0.581284
     10 O2         -9.3820    2.4020    1.0720 o         1 MOL     -0.471961
     11 C5        -10.9140    4.6910   -0.9170 c3        1 MOL      0.196929
     12 C6         -9.6250    5.6040   -0.7750 c         1 MOL      0.621376
     13 O3         -9.3980    6.4380   -1.7210 o         1 MOL     -0.706595
     14 O4         -8.9020    5.6870    0.2390 o         1 MOL     -0.706595
     15 H4        -10.8020    5.3730    1.6450 hn        1 MOL      0.211685
     16 H5        -12.2120    3.4310   -0.0040 h1        1 MOL      0.210567
     17 H6        -11.6710    5.4560   -1.0840 hc        1 MOL      0.034228
     18 H7        -10.8390    4.0850   -1.8210 hc        1 MOL      0.034228
     19 N2        -10.6750    1.6310   -0.6020 n         1 MOL     -0.260020
     20 C7        -10.3010    0.2670   -0.2930 c3        1 MOL      0.231501
     21 C8         -8.9410   -0.0750   -0.9040 c         1 MOL      0.344876
     22 O5         -8.7740   -1.0500   -1.6350 o         1 MOL     -0.542661
     23 C9        -11.5200   -0.6210   -0.7680 c3        1 MOL     -0.040419
     24 C10       -12.7320   -0.3900    0.1850 c3        1 MOL     -0.049131
     25 C11       -13.8820   -1.3440   -0.2000 c3        1 MOL      0.083648
     26 C12       -15.1950   -1.0910    0.5550 c3        1 MOL      0.019176
     27 N3        -16.2930   -1.9640    0.0530 n4        1 MOL     -0.275395
     28 H8        -11.4840    1.8180   -1.1730 hn        1 MOL      0.267018
     29 H9        -10.1190    0.2190    0.7880 h1        1 MOL      0.001766
     30 H10       -11.1320   -1.6380   -0.7400 hc        1 MOL      0.032189
     31 H11       -11.8310   -0.3350   -1.7720 hc        1 MOL      0.032189
     32 H12       -13.0580    0.6450    0.0600 hc        1 MOL      0.023591
     33 H13       -12.5390   -0.6410    1.2310 hc        1 MOL      0.023591
     34 H14       -13.5790   -2.3720   -0.0320 hc        1 MOL      0.004576
     35 H15       -14.0740   -1.1990   -1.2560 hc        1 MOL      0.004576
     36 H16       -15.5480   -0.0950    0.3140 hx        1 MOL      0.077834
     37 H17       -15.0970   -1.2350    1.6350 hx        1 MOL      0.077834
     38 H18       -16.5060   -1.6510   -0.8780 hn        1 MOL      0.274144
     39 H19       -16.0670   -2.9530    0.0840 hn        1 MOL      0.274144
     40 H20       -17.1590   -1.9000    0.5650 hn        1 MOL      0.274144
     41 N4         -7.9730    0.6810   -0.5840 n         1 MOL      0.001640
     42 C13        -6.6030    0.6830   -1.0420 c3        1 MOL     -0.191694
     43 C14        -5.6800    1.2790    0.1010 c         1 MOL      0.452169
     44 O6         -6.0520    2.1740    0.8620 o         1 MOL     -0.628474
     45 C15        -6.4130    1.3860   -2.3420 c3        1 MOL     -0.258409
     46 C16        -7.1420    2.7370   -2.4600 c         1 MOL      0.447894
     47 O7         -7.3500    3.2550   -3.5930 o         1 MOL     -0.578695
     48 O8         -7.3510    3.3650   -1.4410 o         1 MOL     -0.578695
     49 H21        -8.2420    1.5090   -0.0620 hn        1 MOL      0.081465
     50 H22        -6.3830   -0.3730   -1.1960 h1        1 MOL      0.143295
     51 H23        -6.8540    0.7330   -3.0890 hc        1 MOL      0.127302
     52 H24        -5.3310    1.4010   -2.4780 hc        1 MOL      0.127302
     53 N5         -4.4190    0.9170    0.1440 n         1 MOL     -0.344853
     54 C17        -3.7790   -0.2110   -0.5220 c3        1 MOL      0.021327
     55 C18        -4.3480   -1.6290   -0.0980 c         1 MOL      0.818646
     56 O9         -4.7920   -1.6920    1.0050 o         1 MOL     -0.542358
     57 H25        -3.9010    1.4700    0.7990 hn        1 MOL      0.260633
     58 H26        -2.7120   -0.2180   -0.3060 h1        1 MOL      0.028144
     59 H27        -3.8770   -0.1900   -1.6100 h1        1 MOL      0.028144
     60 N6         -4.2670   -2.6510   -0.9560 n         1 MOL     -0.899056
     61 C19        -4.8770   -3.9920   -0.7030 c3        1 MOL      0.288636
     62 C20        -3.8680   -5.1400   -0.7590 c         1 MOL      0.497863
     63 O10        -3.6500   -5.8170    0.3120 o         1 MOL     -0.508385
     64 C21        -6.0640   -4.1950   -1.7030 c3        1 MOL     -0.018714
     65 C22        -6.8430   -5.5000   -1.4490 c         1 MOL      0.593387
     66 O11        -7.8130   -5.6340   -2.2070 o         1 MOL     -0.620291
     67 O12        -6.6450   -6.1720   -0.3990 o         1 MOL     -0.620291
     68 H28        -3.9270   -2.4350   -1.8870 hn        1 MOL      0.365549
     69 H29        -5.3470   -3.9730    0.2780 h1        1 MOL      0.041113
     70 H30        -5.5800   -4.1970   -2.6790 hc        1 MOL     -0.020157
     71 H31        -6.6140   -3.2630   -1.8090 hc        1 MOL     -0.020157
     72 N7         -3.1020   -5.2410   -1.8900 n         1 MOL     -0.466291
     73 C23        -2.0070   -6.1610   -2.0730 c3        1 MOL     -0.120370
     74 C24        -0.7150   -5.7430   -1.4560 c         1 MOL      0.588515
     75 O13         0.2890   -5.9490   -2.1130 o         1 MOL     -0.575213
     76 H32        -3.1830   -4.5310   -2.6060 hn        1 MOL      0.330294
     77 H33        -1.8460   -6.2990   -3.1450 h1        1 MOL      0.111091
     78 H34        -2.2060   -7.1380   -1.6460 h1        1 MOL      0.111091
     79 N8         -0.7040   -5.2590   -0.2140 n         1 MOL     -0.451557
     80 C25         0.4660   -4.6960    0.5480 c3        1 MOL      0.007901
     81 C26         0.8450   -3.2960    0.1460 c         1 MOL      0.680248
     82 O14        -0.0240   -2.4950   -0.2560 o         1 MOL     -0.574806
     83 C27         0.2100   -4.6180    2.0850 c3        1 MOL      0.407066
     84 C28        -0.9910   -3.7420    2.5040 c3        1 MOL     -0.209230
     85 O15         0.0770   -6.0130    2.4350 oh        1 MOL     -0.610448
     86 H35        -1.6190   -5.1800    0.2270 hn        1 MOL      0.287920
     87 H36         1.3650   -5.3140    0.4800 h1        1 MOL      0.034732
     88 H37         1.0830   -4.2760    2.6380 h1        1 MOL     -0.024867
     89 H38         0.9620   -6.3060    2.6520 ho        1 MOL      0.371513
     90 H39        -0.8790   -3.6260    3.5760 hc        1 MOL      0.061631
     91 H40        -1.0330   -2.8070    1.9540 hc        1 MOL      0.061631
     92 H41        -1.9350   -4.2500    2.2770 hc        1 MOL      0.061631
     93 N9          2.0880   -2.8640    0.4860 n         1 MOL     -0.650978
     94 C29         2.5490   -1.5290    0.2100 c3        1 MOL      0.091793
     95 C30         3.9890   -1.5890   -0.3210 c         1 MOL      0.653654
     96 O16         4.4010   -0.8450   -1.2130 o         1 MOL     -0.566381
     97 C31         2.6530   -0.6300    1.4880 c3        1 MOL      0.085406
     98 C32         1.3320   -0.6110    2.2690 c3        1 MOL     -0.011018
     99 C33         3.0780    0.7880    1.2400 c3        1 MOL     -0.180464
    100 C34         1.4360   -0.0200    3.7170 c3        1 MOL     -0.214614
    101 H42         2.5210   -3.4600    1.1850 hn        1 MOL      0.264527
    102 H43         1.8950   -0.9720   -0.4570 h1        1 MOL      0.087263
    103 H44         3.4350   -1.0890    2.1040 hc        1 MOL     -0.002901
    104 H45         0.9970   -1.6250    2.4560 hc        1 MOL      0.041725
    105 H46         0.5270   -0.1450    1.6960 hc        1 MOL      0.041725
    106 H47         4.0940    0.8450    0.8450 hc        1 MOL      0.051345
    107 H48         2.3200    1.1790    0.5600 hc        1 MOL      0.051345
    108 H49         3.0450    1.3960    2.1420 hc        1 MOL      0.051345
    109 H50         1.4470    1.0630    3.7460 hc        1 MOL      0.051247
    110 H51         0.4980   -0.2540    4.2070 hc        1 MOL      0.051247
    111 H52         2.2300   -0.5150    4.2790 hc        1 MOL      0.051247
    112 N10         4.7540   -2.5820    0.1550 n         1 MOL     -0.562012
    113 C35         6.1640   -2.8140   -0.1560 c3        1 MOL     -0.043592
    114 C36         7.1490   -2.5730    0.9950 c         1 MOL      0.699628
    115 O17         6.8940   -2.9670    2.1290 o         1 MOL     -0.541694
    116 C37         6.2570   -4.2050   -0.8100 c3        1 MOL      0.381861
    117 C38         5.5380   -4.3020   -2.1000 c3        1 MOL     -0.384809
    118 O18         7.5560   -4.6070   -1.0780 oh        1 MOL     -0.659419
    119 H53         4.3480   -3.0850    0.9210 hn        1 MOL      0.286761
    120 H54         6.4090   -2.1830   -1.0170 h1        1 MOL      0.111544
    121 H55         5.8420   -4.8720   -0.0550 h1        1 MOL     -0.010501
    122 H56         7.5100   -5.3180   -1.7250 ho        1 MOL      0.411282
    123 H57         6.0080   -3.5640   -2.7450 hc        1 MOL      0.111196
    124 H58         5.7340   -5.3100   -2.4730 hc        1 MOL      0.111196
    125 H59         4.4640   -4.1560   -1.9820 hc        1 MOL      0.111196
    126 N11         8.3640   -2.0380    0.6700 n         1 MOL     -0.712004
    127 C39         9.4940   -1.8260    1.6420 c3        1 MOL      0.112279
    128 C40        10.2490   -0.5290    1.4460 c         1 MOL      0.654706
    129 O19        10.6740    0.0480    2.4370 o         1 MOL     -0.596779
    130 C41        10.4590   -3.0850    1.6000 c3        1 MOL      0.352274
    131 C42        11.2040   -3.2440    2.9240 c3        1 MOL     -0.471630
    132 O20        11.3480   -2.9630    0.5400 oh        1 MOL     -0.611795
    133 H60         8.4400   -1.8240   -0.3100 hn        1 MOL      0.332420
    134 H61         9.0990   -1.7180    2.6530 h1        1 MOL      0.070731
    135 H62         9.7700   -3.8960    1.3560 h1        1 MOL      0.029566
    136 H63        11.1580   -3.7950    0.0900 ho        1 MOL      0.386433
    137 H64        10.5920   -3.5360    3.7730 hc        1 MOL      0.119784
    138 H65        11.9520   -4.0340    2.9160 hc        1 MOL      0.119784
    139 H66        11.8120   -2.3870    3.2020 hc        1 MOL      0.119784
    140 N12        10.5020   -0.1300    0.1980 n         1 MOL     -0.492475
    141 C43        11.3780    1.0400   -0.0800 c3        1 MOL      0.088412
    142 C44        10.6680    2.0510   -0.9650 c         1 MOL      0.290314
    143 O21         9.9840    1.7420   -1.9340 o         1 MOL     -0.468160
    144 C45        12.6560    0.4340   -0.7230 c3        1 MOL     -0.059172
    145 C46        13.8180    1.4540   -0.4740 c3        1 MOL      0.286701
    146 C47        15.1620    0.8660   -0.8510 c3        1 MOL     -0.007307
    147 C48        15.6210   -0.3750   -0.0110 c3        1 MOL      0.014762
    148 N13        15.7390   -0.0410    1.4510 n4        1 MOL     -0.303740
    149 H67         9.9690   -0.5250   -0.5670 hn        1 MOL      0.280815
    150 H68        11.6350    1.6440    0.7920 h1        1 MOL      0.039202
    151 H69        12.5470    0.3060   -1.8020 hc        1 MOL      0.045259
    152 H70        12.9810   -0.5400   -0.3700 hc        1 MOL      0.045259
    153 H71        13.8340    1.7480    0.5820 hc        1 MOL     -0.117644
    154 H72        13.5740    2.3700   -1.0090 hc        1 MOL     -0.117644
    155 H73        15.9750    1.5860   -0.8860 hc        1 MOL      0.027679
    156 H74        15.0240    0.4970   -1.8670 hc        1 MOL      0.027679
    157 H75        16.5530   -0.7670   -0.4170 hx        1 MOL      0.070385
    158 H76        14.9290   -1.1870   -0.2190 hx        1 MOL      0.070385
    159 H77        16.1020   -0.8380    1.9540 hn        1 MOL      0.283989
    160 H78        16.4140    0.6870    1.6260 hn        1 MOL      0.283989
    161 H79        14.8610    0.2880    1.8130 hn        1 MOL      0.283989
    162 N14        10.7210    3.2710   -0.5610 n         1 MOL     -0.071692
    163 C49        10.2680    4.2940   -1.3700 c3        1 MOL      0.090781
    164 C50         8.7620    4.3770   -1.5730 c         1 MOL      0.346741
    165 O22         8.4010    4.5340   -2.7320 o         1 MOL     -0.540507
    166 C51        10.6710    5.7070   -0.9130 c3        1 MOL      0.074606
    167 C52        12.1710    5.7470   -1.2220 c3        1 MOL     -0.158713
    168 C53        12.8850    7.0320   -0.7380 c         1 MOL      0.672234
    169 O23        12.4740    7.6100    0.2790 o         1 MOL     -0.676431
    170 O24        13.7430    7.5030   -1.5370 o         1 MOL     -0.676431
    171 H80        11.2910    3.5430    0.2310 hn        1 MOL      0.222868
    172 H81        10.5640    4.1010   -2.3980 h1        1 MOL      0.054807
    173 H82        10.4210    5.8920    0.1360 hc        1 MOL      0.016719
    174 H83        10.1800    6.4720   -1.5080 hc        1 MOL      0.016719
    175 H84        12.4290    5.4650   -2.2450 hc        1 MOL      0.005095
    176 H85        12.6130    5.0080   -0.5490 hc        1 MOL      0.005095
    177 N15         7.8030    4.3330   -0.6620 n         1 MOL     -0.317442
    178 C54         7.9760    4.3610    0.7670 c3        1 MOL      0.065394
    179 H86         7.9990    5.3950    1.1100 h1        1 MOL      0.001850
    180 H87         7.1450    3.8400    1.2440 h1        1 MOL      0.001850
    181 H88         8.9130    3.8700    1.0300 h1        1 MOL      0.001850
    182 H89         6.8620    4.2760   -1.0240 hn        1 MOL      0.283617
    183 Ca1        -6.5310    4.6630    0.5680 Ca        1 MOL      1.678558
    184 O25        -7.8300    3.8280    2.6940 oh        1 MOL     -0.951690
    185 H90        -8.4150    3.1720    2.3160 ho        1 MOL      0.449665
    186 H91        -7.8950    3.6850    3.6450 ho        1 MOL      0.449665
@<TRIPOS>BOND
     1    1    2 1   
     2    1    4 1   
     3    1    5 1   
     4    1    6 1   
     5    2    3 2   
     6    2    7 1   
     7    7    8 1   
     8    7   15 1   
     9    8    9 1   
    10    8   11 1   
    11    8   16 1   
    12    9   10 2   
    13    9   19 1   
    14   11   12 1   
    15   11   17 1   
    16   11   18 1   
    17   12   13 1   
    18   12   14 1   
    19   19   20 1   
    20   19   28 1   
    21   20   21 1   
    22   20   23 1   
    23   20   29 1   
    24   21   22 2   
    25   21   41 1   
    26   23   24 1   
    27   23   30 1   
    28   23   31 1   
    29   24   25 1   
    30   24   32 1   
    31   24   33 1   
    32   25   26 1   
    33   25   34 1   
    34   25   35 1   
    35   26   27 1   
    36   26   36 1   
    37   26   37 1   
    38   27   38 1   
    39   27   39 1   
    40   27   40 1   
    41   41   42 1   
    42   41   49 1   
    43   42   43 1   
    44   42   45 1   
    45   42   50 1   
    46   43   44 2   
    47   43   53 1   
    48   45   46 1   
    49   45   51 1   
    50   45   52 1   
    51   46   47 1   
    52   46   48 1   
    53   53   54 1   
    54   53   57 1   
    55   54   55 1   
    56   54   58 1   
    57   54   59 1   
    58   55   56 2   
    59   55   60 1   
    60   60   61 1   
    61   60   68 1   
    62   61   62 1   
    63   61   64 1   
    64   61   69 1   
    65   62   63 2   
    66   62   72 1   
    67   64   65 1   
    68   64   70 1   
    69   64   71 1   
    70   65   66 1   
    71   65   67 1   
    72   72   73 1   
    73   72   76 1   
    74   73   74 1   
    75   73   77 1   
    76   73   78 1   
    77   74   75 2   
    78   74   79 1   
    79   79   80 1   
    80   79   86 1   
    81   80   81 1   
    82   80   83 1   
    83   80   87 1   
    84   81   82 2   
    85   81   93 1   
    86   83   84 1   
    87   83   85 1   
    88   83   88 1   
    89   84   90 1   
    90   84   91 1   
    91   84   92 1   
    92   85   89 1   
    93   93   94 1   
    94   93  101 1   
    95   94   95 1   
    96   94   97 1   
    97   94  102 1   
    98   95   96 2   
    99   95  112 1   
   100   97   98 1   
   101   97   99 1   
   102   97  103 1   
   103   98  100 1   
   104   98  104 1   
   105   98  105 1   
   106   99  106 1   
   107   99  107 1   
   108   99  108 1   
   109  100  109 1   
   110  100  110 1   
   111  100  111 1   
   112  112  113 1   
   113  112  119 1   
   114  113  114 1   
   115  113  116 1   
   116  113  120 1   
   117  114  115 2   
   118  114  126 1   
   119  116  117 1   
   120  116  118 1   
   121  116  121 1   
   122  117  123 1   
   123  117  124 1   
   124  117  125 1   
   125  118  122 1   
   126  126  127 1   
   127  126  133 1   
   128  127  128 1   
   129  127  130 1   
   130  127  134 1   
   131  128  129 2   
   132  128  140 1   
   133  130  131 1   
   134  130  132 1   
   135  130  135 1   
   136  131  137 1   
   137  131  138 1   
   138  131  139 1   
   139  132  136 1   
   140  140  141 1   
   141  140  149 1   
   142  141  142 1   
   143  141  144 1   
   144  141  150 1   
   145  142  143 2   
   146  142  162 1   
   147  144  145 1   
   148  144  151 1   
   149  144  152 1   
   150  145  146 1   
   151  145  153 1   
   152  145  154 1   
   153  146  147 1   
   154  146  155 1   
   155  146  156 1   
   156  147  148 1   
   157  147  157 1   
   158  147  158 1   
   159  148  159 1   
   160  148  160 1   
   161  148  161 1   
   162  162  163 1   
   163  162  171 1   
   164  163  164 1   
   165  163  166 1   
   166  163  172 1   
   167  164  165 2   
   168  164  177 1   
   169  166  167 1   
   170  166  173 1   
   171  166  174 1   
   172  167  168 1   
   173  167  175 1   
   174  167  176 1   
   175  168  169 1   
   176  168  170 1   
   177  177  178 1   
   178  177  182 1   
   179  178  179 1   
   180  178  180 1   
   181  178  181 1   
   182  184  185 1   
   183  184  186 1   
@<TRIPOS>SUBSTRUCTURE
     1 MOL         1 TEMP              0 ****  ****    0 ROOT
