@<TRIPOS>MOLECULE
MOL
  189   185     1     0     0
SMALL
resp


@<TRIPOS>ATOM
      1 C1          4.3890    4.3750   -3.2270 c3        1 MOL     -0.526964
      2 C2          5.0860    3.3490   -2.2730 c         1 MOL      0.784747
      3 O1          4.4900    3.0680   -1.2510 o         1 MOL     -0.557348
      4 H1          4.6340    4.1340   -4.2610 hc        1 MOL      0.131240
      5 H2          3.3090    4.3250   -3.0900 hc        1 MOL      0.131240
      6 H3          4.7390    5.3820   -2.9970 hc        1 MOL      0.131240
      7 N1          6.2630    2.8380   -2.6250 n         1 MOL     -0.718640
      8 C3          6.9650    1.7050   -1.9400 c3        1 MOL      0.280831
      9 C4          6.0230    0.5750   -1.4370 c         1 MOL      0.316839
     10 O2          5.6010    0.4230   -0.2880 o         1 MOL     -0.522034
     11 C5          7.9000    2.2900   -0.8870 c3        1 MOL     -0.152938
     12 C6          7.2860    3.2330    0.1430 c         1 MOL      0.814059
     13 O3          6.3780    2.8690    0.8830 o         1 MOL     -0.759449
     14 O4          7.7130    4.3970    0.1170 o         1 MOL     -0.759449
     15 H4          6.7730    3.2190   -3.4130 hn        1 MOL      0.346214
     16 H5          7.6230    1.3050   -2.7120 h1        1 MOL      0.017538
     17 H6          8.7290    2.7960   -1.3870 hc        1 MOL      0.016267
     18 H7          8.3680    1.4380   -0.3810 hc        1 MOL      0.016267
     19 N2          5.6450   -0.2080   -2.4560 n         1 MOL     -0.509841
     20 C7          5.0540   -1.5940   -2.5580 c3        1 MOL      0.079025
     21 C8          5.7280   -2.7690   -1.7410 c         1 MOL      0.343429
     22 O5          5.8140   -3.8650   -2.2990 o         1 MOL     -0.477856
     23 C9          3.5520   -1.5810   -2.2680 c3        1 MOL      0.325359
     24 C10         2.8200   -2.9190   -2.5660 c3        1 MOL     -0.350592
     25 C11         2.8420   -0.5070   -3.1100 c3        1 MOL     -0.173222
     26 C12         2.8080   -3.4040   -3.9920 c3        1 MOL     -0.495399
     27 H8          5.7240    0.1810   -3.3920 hn        1 MOL      0.292188
     28 H9          5.1850   -1.7960   -3.6200 h1        1 MOL      0.046024
     29 H10         3.3610   -1.4260   -1.2060 hc        1 MOL     -0.118467
     30 H11         1.7730   -2.9760   -2.2670 hc        1 MOL      0.181883
     31 H12         3.3430   -3.7490   -2.0920 hc        1 MOL      0.181883
     32 H13         3.1000   -0.6100   -4.1670 hc        1 MOL      0.029819
     33 H14         1.7750   -0.6490   -3.0120 hc        1 MOL      0.029819
     34 H15         3.2170    0.4800   -2.8300 hc        1 MOL      0.029819
     35 H16         2.2970   -2.6680   -4.6180 hc        1 MOL      0.120972
     36 H17         3.8410   -3.7100   -4.1650 hc        1 MOL      0.120972
     37 H18         2.2120   -4.3220   -4.0200 hc        1 MOL      0.120972
     38 N3          6.3370   -2.4370   -0.6170 n         1 MOL     -0.264593
     39 C13         7.1170   -3.4920    0.0420 c3        1 MOL      0.037833
     40 C14         6.3100   -4.7800    0.3470 c         1 MOL      0.535082
     41 O6          6.8590   -5.8510    0.1340 o         1 MOL     -0.594054
     42 C15         7.9080   -2.9560    1.2580 c3        1 MOL     -0.225959
     43 C16         8.9820   -1.9940    0.8500 c         1 MOL      0.771867
     44 O7          9.4520   -2.1070   -0.3180 o         1 MOL     -0.741285
     45 O8          9.5200   -1.2400    1.7040 o         1 MOL     -0.741285
     46 H19         6.3790   -1.4400   -0.4230 hn        1 MOL      0.363845
     47 H20         7.8710   -3.7580   -0.7100 h1        1 MOL      0.065643
     48 H21         8.3670   -3.7710    1.8080 hc        1 MOL      0.047498
     49 H22         7.1530   -2.4810    1.8890 hc        1 MOL      0.047498
     50 N4          5.0640   -4.7970    0.7940 n         1 MOL     -0.494930
     51 C17         4.1740   -3.6710    1.0020 c3        1 MOL      0.010877
     52 C18         2.7860   -4.2350    1.3830 c         1 MOL      0.524623
     53 O9          2.4090   -5.3730    1.0030 o         1 MOL     -0.566916
     54 H23         4.6760   -5.7150    0.9000 hn        1 MOL      0.306047
     55 H24         4.0760   -3.0680    0.0970 h1        1 MOL      0.060907
     56 H25         4.6400   -2.9550    1.6680 h1        1 MOL      0.060907
     57 N5          2.0560   -3.6180    2.2820 n         1 MOL     -0.491490
     58 C19         2.1240   -2.2620    2.8350 c3        1 MOL      0.318580
     59 C20         2.2790   -1.0950    1.7900 c         1 MOL      0.682436
     60 O10         3.2890   -0.4560    1.5750 o         1 MOL     -0.720333
     61 C21         3.2010   -2.1820    3.9060 c3        1 MOL     -0.552954
     62 C22         3.1140   -0.8230    4.6490 c         1 MOL      0.796742
     63 O11         4.1620   -0.2630    5.0420 o         1 MOL     -0.693249
     64 O12         2.0400   -0.2690    4.8260 o         1 MOL     -0.693249
     65 H26         1.1630   -4.0600    2.3930 hn        1 MOL      0.270871
     66 H27         1.1500   -2.0390    3.2580 h1        1 MOL      0.017300
     67 H28         4.1820   -2.3300    3.4470 hc        1 MOL      0.123926
     68 H29         3.0730   -3.0370    4.5670 hc        1 MOL      0.123926
     69 N6          1.2650   -0.8810    0.9440 n         1 MOL     -0.421564
     70 C23        -0.0800   -1.3480    1.1650 c3        1 MOL      0.057806
     71 C24        -0.6040   -2.5400    0.4060 c         1 MOL      0.377625
     72 O13         0.1020   -3.1640   -0.4140 o         1 MOL     -0.500422
     73 H30         1.3230   -0.1410    0.2650 hn        1 MOL      0.299951
     74 H31        -0.6640   -0.5420    0.7100 h1        1 MOL      0.032512
     75 H32        -0.3850   -1.3030    2.2100 h1        1 MOL      0.032512
     76 N7         -1.8370   -2.9550    0.5220 n         1 MOL     -0.379593
     77 C25        -2.4160   -4.2110   -0.0230 c3        1 MOL      0.290498
     78 C26        -2.8990   -3.9660   -1.4390 c         1 MOL      0.293060
     79 O14        -3.0380   -4.9270   -2.2500 o         1 MOL     -0.506704
     80 C27        -3.5900   -4.6840    0.8360 c3        1 MOL     -0.487838
     81 C28        -4.9200   -4.0560    0.4210 c3        1 MOL      0.047005
     82 C29        -6.0260   -4.3390    1.4560 c         1 MOL      0.532237
     83 N8         -6.4430   -5.6070    1.6220 n         1 MOL     -0.768419
     84 O15        -6.5630   -3.5320    2.1920 o         1 MOL     -0.451205
     85 H33        -2.3740   -2.4610    1.2190 hn        1 MOL      0.254686
     86 H34        -1.7150   -5.0390   -0.1380 h1        1 MOL      0.092302
     87 H35        -3.3650   -4.4720    1.8890 hc        1 MOL      0.137932
     88 H36        -3.7170   -5.7200    0.5510 hc        1 MOL      0.137932
     89 H37        -5.3280   -4.3330   -0.5520 hc        1 MOL      0.039575
     90 H38        -4.8040   -2.9800    0.3220 hc        1 MOL      0.039575
     91 H39        -6.0030   -6.3080    1.0320 hn        1 MOL      0.361037
     92 H40        -7.1760   -5.8230    2.2890 hn        1 MOL      0.361037
     93 N9         -3.0090   -2.6990   -1.8370 n         1 MOL     -0.184310
     94 C30        -3.3480   -2.2170   -3.1590 c3        1 MOL     -0.118792
     95 C31        -4.7980   -1.5410   -3.2600 c         1 MOL      0.606387
     96 O16        -5.2630   -1.3380   -4.4010 o         1 MOL     -0.564501
     97 C32        -2.2640   -1.2870   -3.7200 c3        1 MOL      0.130293
     98 C33        -0.9380   -2.0580   -3.7870 c3        1 MOL     -0.163339
     99 C34        -2.0790   -0.0310   -2.9300 c3        1 MOL     -0.163339
    100 H41        -2.7600   -2.0320   -1.1260 hn        1 MOL      0.173987
    101 H42        -3.5140   -3.0080   -3.8930 h1        1 MOL      0.100126
    102 H43        -2.6930   -0.9710   -4.6770 hc        1 MOL      0.002634
    103 H44        -1.1310   -3.1050   -4.0070 hc        1 MOL      0.049957
    104 H45        -0.3540   -1.6280   -4.6030 hc        1 MOL      0.049957
    105 H46        -0.4110   -1.9910   -2.8380 hc        1 MOL      0.049957
    106 H47        -3.0100    0.2110   -2.4120 hc        1 MOL      0.049957
    107 H48        -1.4000   -0.2100   -2.0960 hc        1 MOL      0.049957
    108 H49        -1.7220    0.7590   -3.5860 hc        1 MOL      0.049957
    109 N10        -5.4260   -1.2140   -2.1210 n         1 MOL     -0.454157
    110 C35        -6.6990   -0.5210   -2.1020 c3        1 MOL     -0.018635
    111 C36        -6.7160    0.7780   -1.3620 c         1 MOL      0.663831
    112 O17        -7.6150    1.5460   -1.5970 o         1 MOL     -0.581300
    113 C37        -7.7690   -1.4820   -1.6030 c3        1 MOL     -0.398171
    114 C38        -7.8790   -2.7680   -2.3950 c         1 MOL      0.638144
    115 N11        -8.2930   -2.6580   -3.5890 n         1 MOL     -0.687581
    116 O18        -7.7740   -3.8580   -1.7680 o         1 MOL     -0.587267
    117 H50        -4.8530   -1.2960   -1.2920 hn        1 MOL      0.286864
    118 H51        -6.8930   -0.1910   -3.1220 h1        1 MOL      0.091801
    119 H52        -8.7510   -1.0480   -1.8200 hc        1 MOL      0.148564
    120 H53        -7.5980   -1.7070   -0.5510 hc        1 MOL      0.148564
    121 H54        -8.4270   -1.7250   -3.9300 hn        1 MOL      0.350701
    122 H55        -8.5590   -3.4840   -4.1100 hn        1 MOL      0.350701
    123 N12        -5.7390    0.9810   -0.5150 n         1 MOL     -0.483743
    124 C39        -5.7700    2.1000    0.4850 c3        1 MOL      0.149563
    125 C40        -4.3560    2.7780    0.6360 c         1 MOL      0.392009
    126 O19        -3.3320    2.2000    0.2830 o         1 MOL     -0.442710
    127 C41        -6.1270    1.5890    1.8820 c3        1 MOL     -0.016842
    128 C42        -7.5410    1.0020    2.0400 ca        1 MOL     -0.050154
    129 C43        -8.6300    1.8310    2.3360 ca        1 MOL     -0.061905
    130 C44        -7.7420   -0.4070    2.0580 ca        1 MOL     -0.061905
    131 C45        -9.8950    1.3590    2.6640 ca        1 MOL     -0.315014
    132 C46        -8.9850   -0.9700    2.3370 ca        1 MOL     -0.315014
    133 C47       -10.0070   -0.0840    2.6840 ca        1 MOL      0.368108
    134 O20       -11.2110   -0.6950    2.9770 oh        1 MOL     -0.500173
    135 H56        -5.0460    0.2840   -0.2870 hn        1 MOL      0.296614
    136 H57        -6.4630    2.8850    0.1900 h1        1 MOL      0.043085
    137 H58        -5.9450    2.2450    2.7360 hc        1 MOL      0.047621
    138 H59        -5.3780    0.8160    2.0540 hc        1 MOL      0.047621
    139 H60        -8.4490    2.8950    2.2290 ha        1 MOL      0.070822
    140 H61        -6.9040   -1.0820    1.8830 ha        1 MOL      0.070822
    141 H62       -10.6670    2.0150    3.0380 ha        1 MOL      0.158893
    142 H63        -9.1360   -2.0360    2.3640 ha        1 MOL      0.158893
    143 H64       -11.9310   -0.0840    3.1620 ho        1 MOL      0.346677
    144 N13        -4.3410    4.0370    1.2160 n         1 MOL     -0.501653
    145 C48        -3.1090    4.8790    1.6200 c3        1 MOL      0.108605
    146 C49        -2.0610    5.2440    0.5880 c         1 MOL      0.388349
    147 O21        -1.2780    6.1820    0.8390 o         1 MOL     -0.473234
    148 C50        -2.4720    4.3360    2.9350 c3        1 MOL     -0.238350
    149 C51        -1.8470    2.9100    2.9190 c3        1 MOL     -0.135809
    150 C52        -1.0060    2.6100    4.1810 c         1 MOL      0.641864
    151 O22         0.1670    3.0310    4.3700 o         1 MOL     -0.674547
    152 O23        -1.4300    1.7670    5.0080 o         1 MOL     -0.674547
    153 H65        -5.1850    4.5290    1.4650 hn        1 MOL      0.299995
    154 H66        -3.5530    5.8010    2.0050 h1        1 MOL      0.051668
    155 H67        -3.2800    4.2190    3.6620 hc        1 MOL      0.097067
    156 H68        -1.6000    4.9820    3.0480 hc        1 MOL      0.097067
    157 H69        -1.2240    2.8200    2.0320 hc        1 MOL      0.041513
    158 H70        -2.6300    2.1650    2.8160 hc        1 MOL      0.041513
    159 N14        -1.9890    4.6070   -0.5960 n         1 MOL     -0.471244
    160 C53        -0.8410    4.7580   -1.5600 c3        1 MOL      0.075808
    161 C54        -1.0890    5.7320   -2.7200 c         1 MOL      0.431604
    162 O24        -0.1600    6.3240   -3.2710 o         1 MOL     -0.536869
    163 C55        -0.4740    3.3470   -2.2130 c3        1 MOL     -0.171111
    164 C56        -0.1320    2.2040   -1.2110 c3        1 MOL      1.084111
    165 C57         1.2820    2.3700   -0.5660 c         1 MOL      0.134851
    166 O25         1.5720    3.3310    0.1870 o         1 MOL     -0.502444
    167 O26         2.0190    1.3430   -0.5370 o         1 MOL     -0.502444
    168 H71        -2.5520    3.7740   -0.6720 hn        1 MOL      0.279615
    169 H72         0.0440    5.1500   -1.0640 h1        1 MOL      0.104842
    170 H73         0.3620    3.6980   -2.8240 hc        1 MOL     -0.027522
    171 H74        -1.2990    3.0120   -2.8470 hc        1 MOL     -0.027522
    172 H75         0.0020    1.3230   -1.8410 hc        1 MOL     -0.329661
    173 H76        -0.9540    2.0170   -0.5130 hc        1 MOL     -0.329661
    174 N15        -2.3340    6.0460   -2.9090 n         1 MOL     -0.115893
    175 C58        -2.8200    6.9150   -3.9310 c3        1 MOL     -0.352961
    176 H77        -2.4500    6.5790   -4.8990 h1        1 MOL      0.120554
    177 H78        -3.9100    6.8990   -3.9340 h1        1 MOL      0.120554
    178 H79        -2.4720    7.9290   -3.7410 h1        1 MOL      0.120554
    179 H80        -2.9990    5.5860   -2.3030 hn        1 MOL      0.178857
    180 Ca1         3.9810    2.0500    1.0720 Ca        1 MOL      1.855859
    181 O27         3.9320    4.7400    1.3280 oh        1 MOL     -0.951017
    182 H81         3.5080    5.3640    1.9160 ho        1 MOL      0.440894
    183 H82         4.4450    5.2850    0.7220 ho        1 MOL      0.440894
    184 O28         5.4340    1.1990    3.2550 oh        1 MOL     -0.951017
    185 H83         4.9510    0.8450    4.0050 ho        1 MOL      0.440894
    186 H84         6.2580    0.7160    3.2560 ho        1 MOL      0.440894
    187 O29         2.1400    1.7470    3.2220 oh        1 MOL     -0.951017
    188 H85         1.5010    2.3660    3.5960 ho        1 MOL      0.440894
    189 H86         2.1770    1.0260    3.8460 ho        1 MOL      0.440894
@<TRIPOS>BOND
     1    1    2 1   
     2    1    4 1   
     3    1    5 1   
     4    1    6 1   
     5    2    3 2   
     6    2    7 1   
     7    7    8 1   
     8    7   15 1   
     9    8    9 1   
    10    8   11 1   
    11    8   16 1   
    12    9   10 2   
    13    9   19 1   
    14   11   12 1   
    15   11   17 1   
    16   11   18 1   
    17   12   13 1   
    18   12   14 1   
    19   19   20 1   
    20   19   27 1   
    21   20   21 1   
    22   20   23 1   
    23   20   28 1   
    24   21   22 2   
    25   21   38 1   
    26   23   24 1   
    27   23   25 1   
    28   23   29 1   
    29   24   26 1   
    30   24   30 1   
    31   24   31 1   
    32   25   32 1   
    33   25   33 1   
    34   25   34 1   
    35   26   35 1   
    36   26   36 1   
    37   26   37 1   
    38   38   39 1   
    39   38   46 1   
    40   39   40 1   
    41   39   42 1   
    42   39   47 1   
    43   40   41 2   
    44   40   50 1   
    45   42   43 1   
    46   42   48 1   
    47   42   49 1   
    48   43   44 1   
    49   43   45 1   
    50   50   51 1   
    51   50   54 1   
    52   51   52 1   
    53   51   55 1   
    54   51   56 1   
    55   52   53 2   
    56   52   57 1   
    57   57   58 1   
    58   57   65 1   
    59   58   59 1   
    60   58   61 1   
    61   58   66 1   
    62   59   60 2   
    63   59   69 1   
    64   61   62 1   
    65   61   67 1   
    66   61   68 1   
    67   62   63 1   
    68   62   64 1   
    69   69   70 1   
    70   69   73 1   
    71   70   71 1   
    72   70   74 1   
    73   70   75 1   
    74   71   72 2   
    75   71   76 1   
    76   76   77 1   
    77   76   85 1   
    78   77   78 1   
    79   77   80 1   
    80   77   86 1   
    81   78   79 2   
    82   78   93 1   
    83   80   81 1   
    84   80   87 1   
    85   80   88 1   
    86   81   82 1   
    87   81   89 1   
    88   81   90 1   
    89   82   83 1   
    90   82   84 2   
    91   83   91 1   
    92   83   92 1   
    93   93   94 1   
    94   93  100 1   
    95   94   95 1   
    96   94   97 1   
    97   94  101 1   
    98   95   96 2   
    99   95  109 1   
   100   97   98 1   
   101   97   99 1   
   102   97  102 1   
   103   98  103 1   
   104   98  104 1   
   105   98  105 1   
   106   99  106 1   
   107   99  107 1   
   108   99  108 1   
   109  109  110 1   
   110  109  117 1   
   111  110  111 1   
   112  110  113 1   
   113  110  118 1   
   114  111  112 2   
   115  111  123 1   
   116  113  114 1   
   117  113  119 1   
   118  113  120 1   
   119  114  115 1   
   120  114  116 2   
   121  115  121 1   
   122  115  122 1   
   123  123  124 1   
   124  123  135 1   
   125  124  125 1   
   126  124  127 1   
   127  124  136 1   
   128  125  126 2   
   129  125  144 1   
   130  127  128 1   
   131  127  137 1   
   132  127  138 1   
   133  128  129 ar  
   134  128  130 ar  
   135  129  131 ar  
   136  129  139 1   
   137  130  132 ar  
   138  130  140 1   
   139  131  133 ar  
   140  131  141 1   
   141  132  133 ar  
   142  132  142 1   
   143  133  134 1   
   144  134  143 1   
   145  144  145 1   
   146  144  153 1   
   147  145  146 1   
   148  145  148 1   
   149  145  154 1   
   150  146  147 2   
   151  146  159 1   
   152  148  149 1   
   153  148  155 1   
   154  148  156 1   
   155  149  150 1   
   156  149  157 1   
   157  149  158 1   
   158  150  151 1   
   159  150  152 1   
   160  159  160 1   
   161  159  168 1   
   162  160  161 1   
   163  160  163 1   
   164  160  169 1   
   165  161  162 2   
   166  161  174 1   
   167  163  164 1   
   168  163  170 1   
   169  163  171 1   
   170  164  165 1   
   171  164  172 1   
   172  164  173 1   
   173  165  166 1   
   174  165  167 1   
   175  174  175 1   
   176  174  179 1   
   177  175  176 1   
   178  175  177 1   
   179  175  178 1   
   180  181  182 1   
   181  181  183 1   
   182  184  185 1   
   183  184  186 1   
   184  187  188 1   
   185  187  189 1   
@<TRIPOS>SUBSTRUCTURE
     1 MOL         1 TEMP              0 ****  ****    0 ROOT
