@<TRIPOS>MOLECULE
MOL
  192   187     1     0     0
SMALL
resp


@<TRIPOS>ATOM
      1 C1         -9.3140    0.2950   -2.0320 c3        1 MOL     -0.532181
      2 C2         -8.2430    0.1420   -0.8440 c         1 MOL      0.891276
      3 O1         -7.1410    0.6030   -0.9730 o         1 MOL     -0.691587
      4 H1         -8.8640   -0.0270   -2.9710 hc        1 MOL      0.116948
      5 H2        -10.1860   -0.3230   -1.8170 hc        1 MOL      0.116948
      6 H3         -9.6200    1.3380   -2.1150 hc        1 MOL      0.116948
      7 N1         -8.6660   -0.4350    0.2310 n         1 MOL     -0.745288
      8 C3         -7.8540   -0.7490    1.4020 c3        1 MOL      0.327771
      9 C4         -7.1620   -2.0800    1.3140 c         1 MOL      0.384581
     10 O2         -7.2330   -2.9050    2.1890 o         1 MOL     -0.499144
     11 C5         -8.7720   -0.5970    2.6280 c3        1 MOL     -0.186265
     12 C6         -9.6170    0.7000    2.7470 c         1 MOL      0.727722
     13 O3        -10.7600    0.6570    3.2450 o         1 MOL     -0.654934
     14 O4         -8.9650    1.7430    2.5040 o         1 MOL     -0.654934
     15 H4         -9.6030   -0.7960    0.1230 hn        1 MOL      0.326661
     16 H5         -7.1200    0.0660    1.4340 h1        1 MOL      0.088563
     17 H6         -8.0360   -0.5390    3.4400 hc        1 MOL      0.021206
     18 H7         -9.3720   -1.5030    2.6680 hc        1 MOL      0.021206
     19 N2         -6.4760   -2.3760    0.1950 n         1 MOL     -0.180335
     20 C7         -5.7740   -3.6900   -0.0180 c3        1 MOL      0.022354
     21 C8         -4.3030   -3.7300    0.2510 c         1 MOL      0.626877
     22 O5         -3.8020   -4.7810    0.6560 o         1 MOL     -0.592835
     23 C9         -6.1450   -4.2670   -1.4130 c3        1 MOL      0.055400
     24 C10        -7.6590   -4.2920   -1.6530 c3        1 MOL      0.146414
     25 C11        -8.0120   -4.9590   -2.9700 c3        1 MOL     -0.017104
     26 C12        -9.5660   -5.1950   -3.0220 c3        1 MOL      0.000629
     27 N3        -10.1110   -5.4910   -4.3960 n4        1 MOL     -0.138313
     28 H8         -6.2950   -1.6870   -0.5320 hn        1 MOL      0.115561
     29 H9         -6.1870   -4.3150    0.7670 h1        1 MOL      0.074382
     30 H10        -5.7580   -5.2900   -1.3810 hc        1 MOL     -0.008260
     31 H11        -5.5850   -3.7470   -2.1960 hc        1 MOL     -0.008260
     32 H12        -8.0570   -3.2760   -1.6820 hc        1 MOL     -0.058527
     33 H13        -8.1240   -4.7660   -0.7830 hc        1 MOL     -0.058527
     34 H14        -7.4750   -5.9010   -2.9870 hc        1 MOL      0.008082
     35 H15        -7.6090   -4.3040   -3.7480 hc        1 MOL      0.008082
     36 H16        -9.9900   -4.2190   -2.7790 hx        1 MOL      0.083772
     37 H17        -9.8300   -5.9670   -2.2920 hx        1 MOL      0.083772
     38 H18        -9.6920   -6.3070   -4.8030 hn        1 MOL      0.216160
     39 H19       -11.1070   -5.6690   -4.3700 hn        1 MOL      0.216160
     40 H20        -9.8820   -4.7530   -5.0590 hn        1 MOL      0.216160
     41 N4         -3.4130   -2.7950    0.0080 n         1 MOL     -0.492232
     42 C13        -3.6230   -1.6210   -0.9410 c3        1 MOL     -0.037137
     43 C14        -3.7870   -0.2970   -0.1910 c         1 MOL      0.248730
     44 O6         -3.8190   -0.2510    1.0460 o         1 MOL     -0.447406
     45 C15        -2.4480   -1.6590   -1.9290 c3        1 MOL     -0.143487
     46 C16        -1.1100   -1.6320   -1.2100 c         1 MOL      0.826554
     47 O7         -0.8670   -0.6060   -0.4900 o         1 MOL     -0.712579
     48 O8         -0.4330   -2.6520   -1.2970 o         1 MOL     -0.712579
     49 H21        -2.4650   -2.9700    0.3320 hn        1 MOL      0.358334
     50 H22        -4.5130   -1.7510   -1.5560 h1        1 MOL      0.138737
     51 H23        -2.5270   -0.7360   -2.5020 hc        1 MOL      0.022671
     52 H24        -2.5550   -2.4880   -2.6270 hc        1 MOL      0.022671
     53 N5         -3.8720    0.8050   -0.9380 n         1 MOL     -0.237978
     54 C17        -3.9810    2.2310   -0.4560 c3        1 MOL      0.152117
     55 C18        -2.7770    2.8490    0.3120 c         1 MOL      0.055141
     56 O9         -1.6900    2.3240    0.3840 o         1 MOL     -0.174401
     57 H25        -3.7320    0.8320   -1.9340 hn        1 MOL      0.222899
     58 H26        -4.8920    2.3310    0.1280 h1        1 MOL      0.083244
     59 H27        -4.2490    2.8830   -1.2890 h1        1 MOL      0.083244
     60 N6         -3.0350    3.9410    0.9870 n         1 MOL     -0.286452
     61 C19        -2.1230    4.8050    1.7780 c3        1 MOL      0.316395
     62 C20        -2.4530    6.2500    1.7090 c         1 MOL      0.439822
     63 O10        -3.6130    6.5850    1.7410 o         1 MOL     -0.528124
     64 C21        -1.9730    4.2800    3.2660 c3        1 MOL     -0.201751
     65 C22        -1.5390    2.9060    3.3680 c         1 MOL      0.666702
     66 O11        -0.4160    2.5830    2.9730 o         1 MOL     -0.682028
     67 O12        -2.4690    2.0200    3.6240 o         1 MOL     -0.682028
     68 H28        -3.9440    4.3590    0.9240 hn        1 MOL      0.243502
     69 H29        -1.1150    4.8160    1.3460 h1        1 MOL     -0.042214
     70 H30        -2.9360    4.2560    3.7790 hc        1 MOL      0.048723
     71 H31        -1.1830    4.8800    3.7190 hc        1 MOL      0.048723
     72 N7         -1.5330    7.1990    1.6140 n         1 MOL     -0.456817
     73 C23        -0.1010    7.0570    1.8710 c3        1 MOL     -0.032279
     74 C24         0.6720    6.7460    0.5980 c         1 MOL      0.653859
     75 O13         0.4280    7.2580   -0.4890 o         1 MOL     -0.552060
     76 H32        -1.8590    8.1540    1.7020 hn        1 MOL      0.330797
     77 H33         0.1610    6.4380    2.7270 h1        1 MOL      0.066237
     78 H34         0.3010    8.0500    2.0450 h1        1 MOL      0.066237
     79 N8          1.6400    5.8340    0.7030 n         1 MOL     -0.755978
     80 C25         2.3240    5.2750   -0.4490 c3        1 MOL      0.376947
     81 C26         1.6100    3.9370   -0.9240 c         1 MOL      0.695116
     82 O14         1.0760    3.1910   -0.0860 o         1 MOL     -0.690155
     83 C27         3.7450    5.0860    0.0010 c3        1 MOL      0.291601
     84 C28         4.6800    5.2290   -1.1900 c3        1 MOL     -0.313787
     85 O15         4.0580    3.8790    0.6710 oh        1 MOL     -0.642349
     86 H35         1.8540    5.3320    1.5570 hn        1 MOL      0.351755
     87 H36         2.3180    5.9130   -1.3330 h1        1 MOL     -0.024631
     88 H37         3.9890    5.9340    0.6370 h1        1 MOL      0.003474
     89 H38         4.9890    4.0160    0.8270 ho        1 MOL      0.412347
     90 H39         5.7170    5.1670   -0.8710 hc        1 MOL      0.070519
     91 H40         4.5230    4.3680   -1.8370 hc        1 MOL      0.070519
     92 H41         4.5970    6.2150   -1.6390 hc        1 MOL      0.070519
     93 N9          1.7660    3.6510   -2.1900 n         1 MOL     -0.511342
     94 C29         1.2680    2.4040   -2.9070 c3        1 MOL      0.026709
     95 C30         1.7550    1.1110   -2.3290 c         1 MOL      0.690230
     96 O16         1.7940    0.8540   -1.1210 o         1 MOL     -0.585347
     97 C31        -0.2660    2.3990   -2.9450 c3        1 MOL      0.389317
     98 C32        -0.9890    3.7670   -3.1740 c3        1 MOL     -0.281725
     99 C33        -0.7390    1.3260   -3.9480 c3        1 MOL     -0.496517
    100 C34        -0.6200    4.3750   -4.5130 c3        1 MOL     -0.006730
    101 H42         2.2360    4.3140   -2.8010 hn        1 MOL      0.297815
    102 H43         1.5770    2.4340   -3.9540 h1        1 MOL      0.026322
    103 H44        -0.6070    2.0330   -1.9820 hc        1 MOL     -0.167891
    104 H45        -0.7180    4.5050   -2.4200 hc        1 MOL      0.084281
    105 H46        -2.0560    3.5470   -3.2650 hc        1 MOL      0.084281
    106 H47        -0.3770    1.5380   -4.9570 hc        1 MOL      0.123821
    107 H48        -0.6980    0.3070   -3.5620 hc        1 MOL      0.123821
    108 H49        -1.7650    1.6490   -4.0790 hc        1 MOL      0.123821
    109 H50        -1.1350    5.3050   -4.7300 hc        1 MOL      0.009190
    110 H51         0.4370    4.6500   -4.4990 hc        1 MOL      0.009190
    111 H52        -0.8630    3.6860   -5.3250 hc        1 MOL      0.009190
    112 N10         2.2300    0.1850   -3.2410 n         1 MOL     -0.615606
    113 C35         2.5340   -1.2520   -2.8510 c3        1 MOL     -0.236695
    114 C36         4.0210   -1.3720   -2.6250 c         1 MOL      0.382118
    115 O17         4.4930   -2.5170   -2.5960 o         1 MOL     -0.535888
    116 C37         2.0700   -2.3010   -3.8850 c3        1 MOL      0.611682
    117 C38         2.5070   -1.9480   -5.2930 c3        1 MOL     -0.397040
    118 O18         0.6920   -2.2350   -3.7840 oh        1 MOL     -0.650785
    119 H53         2.3700    0.3140   -4.2360 hn        1 MOL      0.307781
    120 H54         2.0200   -1.4480   -1.9120 h1        1 MOL      0.260766
    121 H55         2.3590   -3.2860   -3.5160 h1        1 MOL     -0.032322
    122 H56         0.4550   -2.3650   -2.8690 ho        1 MOL      0.333834
    123 H57         2.5400   -2.8960   -5.8470 hc        1 MOL      0.100627
    124 H58         1.7340   -1.3060   -5.7140 hc        1 MOL      0.100627
    125 H59         3.4780   -1.4640   -5.4420 hc        1 MOL      0.100627
    126 N11         4.8380   -0.2880   -2.4420 n         1 MOL     -0.116475
    127 C39         6.2420   -0.3480   -2.0920 c3        1 MOL     -0.105420
    128 C40         6.5720   -0.8090   -0.6840 c         1 MOL      0.485133
    129 O19         6.5750    0.0080    0.2200 o         1 MOL     -0.505572
    130 C41         7.1290    0.8510   -2.4580 c3        1 MOL      0.187687
    131 C42         7.0920    1.0290   -3.9960 c3        1 MOL     -0.478645
    132 O20         6.6210    2.0660   -2.0060 oh        1 MOL     -0.510832
    133 H60         4.3610    0.5990   -2.5780 hn        1 MOL      0.207712
    134 H61         6.6960   -1.0720   -2.7660 h1        1 MOL      0.056486
    135 H62         8.1480    0.7610   -2.0880 h1        1 MOL      0.075654
    136 H63         6.9850    2.2070   -1.1360 ho        1 MOL      0.361334
    137 H64         6.1140    1.4230   -4.2650 hc        1 MOL      0.133439
    138 H65         7.9040    1.7100   -4.2860 hc        1 MOL      0.133439
    139 H66         7.2040    0.1030   -4.5620 hc        1 MOL      0.133439
    140 N12         6.7950   -2.1150   -0.4500 n         1 MOL     -0.328628
    141 C43         6.9090   -2.6540    0.9270 c3        1 MOL      0.021440
    142 C44         5.6690   -2.3900    1.8230 c         1 MOL      0.654945
    143 O21         5.7260   -1.5620    2.7760 o         1 MOL     -0.527026
    144 C45         8.2680   -2.2390    1.5080 c3        1 MOL     -0.404905
    145 C46         9.5280   -2.6370    0.6580 c3        1 MOL      0.370226
    146 C47        10.8350   -2.1520    1.2900 c3        1 MOL     -0.124488
    147 C48        11.9620   -1.9270    0.2290 c3        1 MOL     -0.006869
    148 N13        12.3990   -3.2570   -0.3040 n4        1 MOL     -0.217920
    149 H67         6.9640   -2.6800   -1.2670 hn        1 MOL      0.231903
    150 H68         6.9920   -3.7320    0.8160 h1        1 MOL      0.065883
    151 H69         8.3860   -2.6080    2.5250 hc        1 MOL      0.123103
    152 H70         8.3050   -1.1500    1.5970 hc        1 MOL      0.123103
    153 H71         9.4810   -2.1330   -0.3130 hc        1 MOL     -0.079539
    154 H72         9.6280   -3.7070    0.5060 hc        1 MOL     -0.079539
    155 H73        11.0730   -3.0040    1.9240 hc        1 MOL      0.060946
    156 H74        10.7950   -1.2000    1.8330 hc        1 MOL      0.060946
    157 H75        12.7970   -1.4410    0.7380 hx        1 MOL      0.084422
    158 H76        11.5760   -1.3130   -0.5760 hx        1 MOL      0.084422
    159 H77        13.0520   -3.0990   -1.0640 hn        1 MOL      0.214962
    160 H78        12.8910   -3.8100    0.3860 hn        1 MOL      0.214962
    161 H79        11.5610   -3.7600   -0.5560 hn        1 MOL      0.214962
    162 N14         4.5630   -3.0850    1.5150 n         1 MOL     -0.607657
    163 C49         3.2690   -2.6510    1.9830 c3        1 MOL      0.469633
    164 C50         2.1900   -2.4610    0.9380 c         1 MOL      0.204266
    165 O22         1.6350   -1.3770    0.8760 o         1 MOL     -0.474393
    166 C51         2.7650   -3.6030    3.1240 c3        1 MOL     -0.264083
    167 C52         3.3440   -3.5510    4.5690 c3        1 MOL     -0.219125
    168 C53         3.4030   -4.9320    5.2910 c         1 MOL      0.722046
    169 O23         2.6660   -5.2130    6.2670 o         1 MOL     -0.633622
    170 O24         4.2440   -5.7730    4.8590 o         1 MOL     -0.633622
    171 H80         4.6560   -3.8150    0.8210 hn        1 MOL      0.301343
    172 H81         3.3940   -1.6670    2.4440 h1        1 MOL     -0.010165
    173 H82         2.8600   -4.6020    2.7040 hc        1 MOL      0.102097
    174 H83         1.7340   -3.2560    3.1390 hc        1 MOL      0.102097
    175 H84         2.7700   -2.8220    5.1350 hc        1 MOL      0.050663
    176 H85         4.4050   -3.2900    4.4830 hc        1 MOL      0.050663
    177 N15         1.8350   -3.4480    0.1240 n         1 MOL     -0.283655
    178 C54         2.2630   -4.8310    0.0250 c3        1 MOL     -0.104420
    179 H86         3.1820   -4.8850   -0.5590 h1        1 MOL      0.062148
    180 H87         2.4450   -5.2280    1.0230 h1        1 MOL      0.062148
    181 H88         1.4850   -5.4180   -0.4650 h1        1 MOL      0.062148
    182 H89         1.0610   -3.1870   -0.4700 hn        1 MOL      0.362454
    183 Ca1         0.3550    0.9430    1.0910 Ca        1 MOL      1.686930
    184 O25         2.7780    1.7300    1.8900 oh        1 MOL     -0.907145
    185 H90         3.1780    2.4920    1.4770 ho        1 MOL      0.440644
    186 H91         3.5210    1.2500    2.2700 ho        1 MOL      0.440644
    187 O26        -1.6470   -0.1810    2.5170 oh        1 MOL     -0.907145
    188 H92        -2.3800   -0.2540    1.9000 ho        1 MOL      0.440644
    189 H93        -1.9590    0.4480    3.1730 ho        1 MOL      0.440644
    190 O27         1.2160   -0.1190    3.4480 oh        1 MOL     -0.907145
    191 H94         1.8700    0.2470    4.0440 ho        1 MOL      0.440644
    192 H95         0.7550   -0.7860    3.9670 ho        1 MOL      0.440644
@<TRIPOS>BOND
     1    1    2 1   
     2    1    4 1   
     3    1    5 1   
     4    1    6 1   
     5    2    3 2   
     6    2    7 1   
     7    7    8 1   
     8    7   15 1   
     9    8    9 1   
    10    8   11 1   
    11    8   16 1   
    12    9   10 2   
    13    9   19 1   
    14   11   12 1   
    15   11   17 1   
    16   11   18 1   
    17   12   13 1   
    18   12   14 1   
    19   19   20 1   
    20   19   28 1   
    21   20   21 1   
    22   20   23 1   
    23   20   29 1   
    24   21   22 2   
    25   21   41 1   
    26   23   24 1   
    27   23   30 1   
    28   23   31 1   
    29   24   25 1   
    30   24   32 1   
    31   24   33 1   
    32   25   26 1   
    33   25   34 1   
    34   25   35 1   
    35   26   27 1   
    36   26   36 1   
    37   26   37 1   
    38   27   38 1   
    39   27   39 1   
    40   27   40 1   
    41   41   42 1   
    42   41   49 1   
    43   42   43 1   
    44   42   45 1   
    45   42   50 1   
    46   43   44 2   
    47   43   53 1   
    48   45   46 1   
    49   45   51 1   
    50   45   52 1   
    51   46   47 1   
    52   46   48 1   
    53   53   54 1   
    54   53   57 1   
    55   54   55 1   
    56   54   58 1   
    57   54   59 1   
    58   55   56 2   
    59   55   60 1   
    60   60   61 1   
    61   60   68 1   
    62   61   62 1   
    63   61   64 1   
    64   61   69 1   
    65   62   63 2   
    66   62   72 1   
    67   64   65 1   
    68   64   70 1   
    69   64   71 1   
    70   65   66 1   
    71   65   67 1   
    72   72   73 1   
    73   72   76 1   
    74   73   74 1   
    75   73   77 1   
    76   73   78 1   
    77   74   75 2   
    78   74   79 1   
    79   79   80 1   
    80   79   86 1   
    81   80   81 1   
    82   80   83 1   
    83   80   87 1   
    84   81   82 2   
    85   81   93 1   
    86   83   84 1   
    87   83   85 1   
    88   83   88 1   
    89   84   90 1   
    90   84   91 1   
    91   84   92 1   
    92   85   89 1   
    93   93   94 1   
    94   93  101 1   
    95   94   95 1   
    96   94   97 1   
    97   94  102 1   
    98   95   96 2   
    99   95  112 1   
   100   97   98 1   
   101   97   99 1   
   102   97  103 1   
   103   98  100 1   
   104   98  104 1   
   105   98  105 1   
   106   99  106 1   
   107   99  107 1   
   108   99  108 1   
   109  100  109 1   
   110  100  110 1   
   111  100  111 1   
   112  112  113 1   
   113  112  119 1   
   114  113  114 1   
   115  113  116 1   
   116  113  120 1   
   117  114  115 2   
   118  114  126 1   
   119  116  117 1   
   120  116  118 1   
   121  116  121 1   
   122  117  123 1   
   123  117  124 1   
   124  117  125 1   
   125  118  122 1   
   126  126  127 1   
   127  126  133 1   
   128  127  128 1   
   129  127  130 1   
   130  127  134 1   
   131  128  129 2   
   132  128  140 1   
   133  130  131 1   
   134  130  132 1   
   135  130  135 1   
   136  131  137 1   
   137  131  138 1   
   138  131  139 1   
   139  132  136 1   
   140  140  141 1   
   141  140  149 1   
   142  141  142 1   
   143  141  144 1   
   144  141  150 1   
   145  142  143 2   
   146  142  162 1   
   147  144  145 1   
   148  144  151 1   
   149  144  152 1   
   150  145  146 1   
   151  145  153 1   
   152  145  154 1   
   153  146  147 1   
   154  146  155 1   
   155  146  156 1   
   156  147  148 1   
   157  147  157 1   
   158  147  158 1   
   159  148  159 1   
   160  148  160 1   
   161  148  161 1   
   162  162  163 1   
   163  162  171 1   
   164  163  164 1   
   165  163  166 1   
   166  163  172 1   
   167  164  165 2   
   168  164  177 1   
   169  166  167 1   
   170  166  173 1   
   171  166  174 1   
   172  167  168 1   
   173  167  175 1   
   174  167  176 1   
   175  168  169 1   
   176  168  170 1   
   177  177  178 1   
   178  177  182 1   
   179  178  179 1   
   180  178  180 1   
   181  178  181 1   
   182  184  185 1   
   183  184  186 1   
   184  187  188 1   
   185  187  189 1   
   186  190  191 1   
   187  190  192 1   
@<TRIPOS>SUBSTRUCTURE
     1 MOL         1 TEMP              0 ****  ****    0 ROOT
