@<TRIPOS>MOLECULE
MOL
  181   177     1     0     0
SMALL
resp


@<TRIPOS>ATOM
      1 C1          4.5470   -1.3050    3.6300 c3        1 MOL     -0.404799
      2 C2          5.2680   -0.2060    2.8480 c         1 MOL      0.668923
      3 O1          4.7270    0.7220    2.2930 o         1 MOL     -0.582490
      4 H1          3.5910   -0.9250    3.9900 hc        1 MOL      0.105380
      5 H2          4.3750   -2.1620    2.9780 hc        1 MOL      0.105380
      6 H3          5.1600   -1.6100    4.4780 hc        1 MOL      0.105380
      7 N1          6.6110   -0.3110    2.7390 n         1 MOL     -0.495265
      8 C3          7.5090    0.7290    2.2430 c3        1 MOL      0.045549
      9 C4          7.2380    1.0110    0.7830 c         1 MOL      0.465207
     10 O2          7.1420    0.0190   -0.0070 o         1 MOL     -0.509174
     11 C5          8.9910    0.4130    2.6140 c3        1 MOL     -0.066954
     12 C6         10.0080    1.4980    2.1860 c         1 MOL      0.639405
     13 O3         10.3030    1.5630    0.9510 o         1 MOL     -0.709655
     14 O4         10.5020    2.1860    3.1060 o         1 MOL     -0.709655
     15 H4          7.0030   -1.1950    3.0360 hn        1 MOL      0.269559
     16 H5          7.2770    1.5890    2.8720 h1        1 MOL      0.061857
     17 H6          9.3180   -0.5370    2.1810 hc        1 MOL      0.000202
     18 H7          9.0400    0.3440    3.7020 hc        1 MOL      0.000202
     19 N2          7.1490    2.2500    0.3410 n         1 MOL     -0.442268
     20 C7          6.8500    2.5970   -1.0830 c3        1 MOL      0.233301
     21 C8          5.4040    2.3480   -1.4720 c         1 MOL      0.627218
     22 O5          4.5080    2.7490   -0.7800 o         1 MOL     -0.527020
     23 C9          7.1360    4.0650   -1.2820 c3        1 MOL     -0.265027
     24 H8          7.1990    3.0210    0.9890 hn        1 MOL      0.291746
     25 H9          7.5080    1.9410   -1.6470 h1        1 MOL      0.066714
     26 H10         7.9150    4.4680   -0.6340 hc        1 MOL      0.063706
     27 H11         7.3220    4.3060   -2.3330 hc        1 MOL      0.063706
     28 H12         6.2230    4.5110   -0.9010 hc        1 MOL      0.063706
     29 N3          5.1950    1.7660   -2.6920 n         1 MOL     -0.595897
     30 C10         3.9570    1.1080   -2.9880 c3        1 MOL     -0.033493
     31 C11         3.0150    2.1480   -3.6500 c         1 MOL      0.623989
     32 O6          3.3820    3.0860   -4.3590 o         1 MOL     -0.523583
     33 C12         4.0340   -0.0530   -3.8920 c3        1 MOL     -0.254753
     34 C13         4.9630   -1.1300   -3.3180 c         1 MOL      0.722382
     35 O7          6.2120   -0.9760   -3.3420 o         1 MOL     -0.691322
     36 O8          4.3760   -2.1410   -2.8270 o         1 MOL     -0.691322
     37 H13         5.9200    1.4350   -3.3110 hn        1 MOL      0.332571
     38 H14         3.4800    0.7880   -2.0590 h1        1 MOL      0.053542
     39 H15         4.4970    0.2870   -4.8180 hc        1 MOL      0.063635
     40 H16         3.0470   -0.3720   -4.2270 hc        1 MOL      0.063635
     41 N4          1.6620    1.9080   -3.5800 n         1 MOL     -0.426515
     42 C14         0.5950    2.5810   -4.3440 c3        1 MOL     -0.098301
     43 C15         0.1810    4.0030   -3.8460 c         1 MOL      0.560364
     44 O9          0.9430    4.7730   -3.2100 o         1 MOL     -0.483717
     45 H17         1.3840    1.2940   -2.8290 hn        1 MOL      0.303433
     46 H18        -0.2600    1.9130   -4.2210 h1        1 MOL      0.070685
     47 H19         0.8080    2.6410   -5.4130 h1        1 MOL      0.070685
     48 N5         -1.0610    4.3100   -4.2220 n         1 MOL     -0.507770
     49 C16        -1.7250    5.5510   -3.6170 c3        1 MOL      0.174581
     50 C17        -1.8870    5.3770   -2.0560 c         1 MOL      0.414495
     51 O10        -1.9300    4.2620   -1.5900 o         1 MOL     -0.432028
     52 C18        -3.0840    5.7090   -4.3740 c3        1 MOL     -0.345100
     53 C19        -3.9920    6.8030   -3.8550 c         1 MOL      0.636950
     54 N6         -5.1350    6.4880   -3.3780 n         1 MOL     -0.711370
     55 O11        -3.7000    7.9900   -3.9500 o         1 MOL     -0.575038
     56 H20        -1.5790    3.6720   -4.8130 hn        1 MOL      0.284280
     57 H21        -1.0320    6.3610   -3.8140 h1        1 MOL      0.034696
     58 H22        -3.5690    4.7440   -4.5210 hc        1 MOL      0.105304
     59 H23        -2.8560    5.9380   -5.4200 hc        1 MOL      0.105304
     60 H24        -5.3800    5.5070   -3.3700 hn        1 MOL      0.349923
     61 H25        -5.8580    7.1930   -3.3380 hn        1 MOL      0.349923
     62 N7         -2.0240    6.4910   -1.3590 n         1 MOL     -0.241739
     63 C20        -2.2400    6.5280    0.0610 c3        1 MOL     -0.417363
     64 C21        -3.4330    5.7850    0.6890 c         1 MOL      0.709608
     65 O12        -4.2750    5.1130    0.1090 o         1 MOL     -0.522909
     66 H26        -1.9590    7.3710   -1.8430 hn        1 MOL      0.267455
     67 H27        -2.4190    7.5710    0.3190 h1        1 MOL      0.174190
     68 H28        -1.3230    6.0850    0.4570 h1        1 MOL      0.174190
     69 N8         -3.4840    5.7730    1.9960 n         1 MOL     -0.516193
     70 C22        -4.5590    5.2300    2.8480 c3        1 MOL     -0.199263
     71 C23        -4.4240    3.7290    3.2360 c         1 MOL      0.486215
     72 O13        -5.4700    3.1170    3.5040 o         1 MOL     -0.560556
     73 C24        -4.6590    6.1380    4.0570 c3        1 MOL      0.496605
     74 C25        -3.5230    6.0610    5.0250 c3        1 MOL     -0.396705
     75 O14        -4.5870    7.5270    3.7210 oh        1 MOL     -0.655818
     76 H29        -2.7580    6.1870    2.5720 hn        1 MOL      0.242082
     77 H30        -5.5090    5.3310    2.3180 h1        1 MOL      0.156572
     78 H31        -5.6370    5.8700    4.4480 h1        1 MOL      0.022584
     79 H32        -3.7890    7.7110    3.2190 ho        1 MOL      0.389466
     80 H33        -3.6930    6.7470    5.8610 hc        1 MOL      0.092132
     81 H34        -3.3430    5.0680    5.4350 hc        1 MOL      0.092132
     82 H35        -2.6090    6.3990    4.5230 hc        1 MOL      0.092132
     83 N9         -3.2580    3.0380    3.1850 n         1 MOL     -0.155814
     84 C26        -3.0140    1.6430    3.4300 c3        1 MOL     -0.023908
     85 C27        -2.0110    1.1730    2.3490 c         1 MOL      0.356149
     86 O15        -1.3250    1.9890    1.7610 o         1 MOL     -0.451209
     87 C28        -2.4500    1.4530    4.8160 c3        1 MOL      0.195600
     88 C29        -1.1560    2.1430    5.1700 c3        1 MOL     -0.125161
     89 C30        -3.5470    1.8170    5.9200 c3        1 MOL     -0.307892
     90 C31        -1.1590    3.7120    5.2440 c3        1 MOL     -0.046104
     91 H36        -2.4170    3.5480    2.9290 hn        1 MOL      0.186837
     92 H37        -3.9450    1.1060    3.2940 h1        1 MOL      0.084062
     93 H38        -2.2420    0.3920    4.9660 hc        1 MOL     -0.027655
     94 H39        -0.5090    1.8670    4.3330 hc        1 MOL      0.055390
     95 H40        -0.8050    1.7110    6.1010 hc        1 MOL      0.055390
     96 H41        -3.6040    2.8920    6.0550 hc        1 MOL      0.069544
     97 H42        -4.5090    1.3260    5.7300 hc        1 MOL      0.069544
     98 H43        -3.1810    1.4850    6.8940 hc        1 MOL      0.069544
     99 H44        -1.6110    4.2100    4.3860 hc        1 MOL      0.017946
    100 H45        -1.7020    3.9940    6.1470 hc        1 MOL      0.017946
    101 H46        -0.1430    4.1130    5.3090 hc        1 MOL      0.017946
    102 N10        -1.9300   -0.1280    2.0730 n         1 MOL     -0.379675
    103 C32        -1.0760   -0.7550    1.1120 c3        1 MOL      0.358410
    104 C33        -1.9530   -1.4510    0.0280 c         1 MOL      0.382467
    105 O16        -1.4020   -2.2940   -0.6890 o         1 MOL     -0.468065
    106 C34        -0.0510   -1.6670    1.7890 c3        1 MOL     -0.079155
    107 C35         1.1710   -2.1940    0.9040 c         1 MOL      0.669136
    108 O17         1.9640   -2.9690    1.4290 o         1 MOL     -0.708096
    109 O18         1.3560   -1.7690   -0.2570 o         1 MOL     -0.708096
    110 H47        -2.5110   -0.7560    2.6040 hn        1 MOL      0.223639
    111 H48        -0.5820    0.0620    0.5920 h1        1 MOL      0.015967
    112 H49        -0.5880   -2.5330    2.1760 hc        1 MOL     -0.016586
    113 H50         0.2630   -1.1230    2.6800 hc        1 MOL     -0.016586
    114 N11        -3.2740   -1.2290    0.0550 n         1 MOL     -0.485769
    115 C36        -4.1960   -1.8510   -0.9160 c3        1 MOL      0.326441
    116 C37        -4.5050   -3.3390   -0.3840 c         1 MOL      0.297787
    117 O19        -4.6060   -3.4900    0.8690 o         1 MOL     -0.509879
    118 C38        -5.4940   -1.0580   -1.0450 c3        1 MOL     -0.280267
    119 C39        -6.6530   -1.8330   -1.6750 ca        1 MOL      0.129007
    120 C40        -7.0470   -1.4870   -2.9850 ca        1 MOL     -0.172411
    121 C41        -7.5150   -2.6190   -0.8860 ca        1 MOL     -0.172411
    122 C42        -8.1180   -2.0970   -3.5540 ca        1 MOL     -0.111880
    123 C43        -8.7170   -3.1070   -1.4440 ca        1 MOL     -0.111880
    124 C44        -8.9350   -2.9480   -2.8000 ca        1 MOL     -0.108130
    125 H51        -3.6160   -0.5650    0.7410 hn        1 MOL      0.248430
    126 H52        -3.8400   -1.9470   -1.9390 h1        1 MOL      0.018103
    127 H53        -5.2080   -0.2020   -1.6480 hc        1 MOL      0.098541
    128 H54        -5.8100   -0.6670   -0.0670 hc        1 MOL      0.098541
    129 H55        -6.3930   -0.8060   -3.4880 ha        1 MOL      0.130821
    130 H56        -7.3480   -2.8300    0.1580 ha        1 MOL      0.130821
    131 H57        -8.4180   -1.9130   -4.5760 ha        1 MOL      0.107351
    132 H58        -9.3440   -3.7340   -0.8320 ha        1 MOL      0.107351
    133 H59        -9.7260   -3.3950   -3.3910 ha        1 MOL      0.092739
    134 N12        -4.5150   -4.3300   -1.2450 n         1 MOL     -0.125013
    135 C45        -4.9460   -5.6700   -0.8500 c3        1 MOL     -0.096646
    136 C46        -3.9880   -6.2850    0.1900 c         1 MOL      0.389603
    137 O20        -4.3880   -6.7600    1.2600 o         1 MOL     -0.513076
    138 C47        -5.0090   -6.4510   -2.1740 c3        1 MOL      0.070801
    139 C48        -4.0980   -5.7610   -3.1590 c3        1 MOL     -0.192985
    140 C49        -4.2380   -4.3130   -2.7040 c3        1 MOL      0.212383
    141 H60        -5.8860   -5.6080   -0.3080 h1        1 MOL      0.112626
    142 H61        -4.7230   -7.4870   -2.0210 hc        1 MOL      0.006842
    143 H62        -6.0350   -6.5190   -2.5250 hc        1 MOL      0.006842
    144 H63        -3.0640   -6.0250   -2.9530 hc        1 MOL      0.076754
    145 H64        -4.4120   -5.9600   -4.1770 hc        1 MOL      0.076754
    146 H65        -3.2960   -3.8130   -2.9560 h1        1 MOL     -0.017194
    147 H66        -4.9120   -3.6830   -3.2880 h1        1 MOL     -0.017194
    148 N13        -2.6740   -6.1020    0.0320 n         1 MOL     -0.204343
    149 C50        -1.5850   -6.3260    0.9910 c3        1 MOL     -0.051047
    150 C51        -1.8690   -6.1400    2.4740 c         1 MOL      0.459566
    151 O21        -1.6660   -7.0900    3.2890 o         1 MOL     -0.559815
    152 C52        -0.2960   -5.5160    0.5260 c3        1 MOL      0.037512
    153 C53         0.2860   -6.1600   -0.7390 c3        1 MOL     -0.081363
    154 C54         1.6130   -5.5440   -1.0960 c         1 MOL      0.743885
    155 O22         1.7450   -4.7520   -2.0340 o         1 MOL     -0.773943
    156 O23         2.6140   -5.6350   -0.3260 o         1 MOL     -0.773943
    157 H67        -2.3510   -5.8210   -0.8910 hn        1 MOL      0.166494
    158 H68        -1.3990   -7.4030    0.9910 h1        1 MOL      0.066677
    159 H69         0.4610   -5.6650    1.2980 hc        1 MOL      0.024813
    160 H70        -0.6150   -4.4870    0.3560 hc        1 MOL      0.024813
    161 H71        -0.4670   -6.0380   -1.5200 hc        1 MOL     -0.003407
    162 H72         0.3140   -7.2580   -0.7000 hc        1 MOL     -0.003407
    163 N14        -2.3040   -4.9720    2.8530 n         1 MOL     -0.140088
    164 C55        -2.4930   -4.6230    4.3040 c3        1 MOL     -0.237437
    165 H73        -3.5570   -4.6270    4.5420 h1        1 MOL      0.096763
    166 H74        -1.9800   -5.3580    4.9250 h1        1 MOL      0.096763
    167 H75        -2.0820   -3.6330    4.4970 h1        1 MOL      0.096763
    168 H76        -2.7050   -4.3590    2.1540 hn        1 MOL      0.241025
    169 Ca1         3.5330   -3.2670   -0.6200 Ca        1 MOL      1.719018
    170 O24         5.1410   -4.9960   -1.7260 oh        1 MOL     -0.853183
    171 H77         4.8510   -5.9070   -1.8410 ho        1 MOL      0.414037
    172 H78         5.9570   -4.9360   -2.2130 ho        1 MOL      0.414037
    173 O25         4.3760   -0.6840   -0.2090 oh        1 MOL     -0.853183
    174 H79         3.6470   -0.0640   -0.1270 ho        1 MOL      0.414037
    175 H80         5.1570   -0.1550   -0.0850 ho        1 MOL      0.414037
    176 O26         4.9840   -4.3950    1.2340 oh        1 MOL     -0.853183
    177 H81         5.1220   -4.6730    2.1420 ho        1 MOL      0.414037
    178 H82         5.4840   -5.0250    0.7220 ho        1 MOL      0.414037
    179 O27         6.3310   -2.5560   -0.9200 oh        1 MOL     -0.853183
    180 H83         5.9540   -2.3190   -1.7640 ho        1 MOL      0.414037
    181 H84         6.6770   -1.7320   -0.5690 ho        1 MOL      0.414037
@<TRIPOS>BOND
     1    1    2 1   
     2    1    4 1   
     3    1    5 1   
     4    1    6 1   
     5    2    3 2   
     6    2    7 1   
     7    7    8 1   
     8    7   15 1   
     9    8    9 1   
    10    8   11 1   
    11    8   16 1   
    12    9   10 2   
    13    9   19 1   
    14   11   12 1   
    15   11   17 1   
    16   11   18 1   
    17   12   13 1   
    18   12   14 1   
    19   19   20 1   
    20   19   24 1   
    21   20   21 1   
    22   20   23 1   
    23   20   25 1   
    24   21   22 2   
    25   21   29 1   
    26   23   26 1   
    27   23   27 1   
    28   23   28 1   
    29   29   30 1   
    30   29   37 1   
    31   30   31 1   
    32   30   33 1   
    33   30   38 1   
    34   31   32 2   
    35   31   41 1   
    36   33   34 1   
    37   33   39 1   
    38   33   40 1   
    39   34   35 1   
    40   34   36 1   
    41   41   42 1   
    42   41   45 1   
    43   42   43 1   
    44   42   46 1   
    45   42   47 1   
    46   43   44 2   
    47   43   48 1   
    48   48   49 1   
    49   48   56 1   
    50   49   50 1   
    51   49   52 1   
    52   49   57 1   
    53   50   51 2   
    54   50   62 1   
    55   52   53 1   
    56   52   58 1   
    57   52   59 1   
    58   53   54 1   
    59   53   55 2   
    60   54   60 1   
    61   54   61 1   
    62   62   63 1   
    63   62   66 1   
    64   63   64 1   
    65   63   67 1   
    66   63   68 1   
    67   64   65 2   
    68   64   69 1   
    69   69   70 1   
    70   69   76 1   
    71   70   71 1   
    72   70   73 1   
    73   70   77 1   
    74   71   72 2   
    75   71   83 1   
    76   73   74 1   
    77   73   75 1   
    78   73   78 1   
    79   74   80 1   
    80   74   81 1   
    81   74   82 1   
    82   75   79 1   
    83   83   84 1   
    84   83   91 1   
    85   84   85 1   
    86   84   87 1   
    87   84   92 1   
    88   85   86 2   
    89   85  102 1   
    90   87   88 1   
    91   87   89 1   
    92   87   93 1   
    93   88   90 1   
    94   88   94 1   
    95   88   95 1   
    96   89   96 1   
    97   89   97 1   
    98   89   98 1   
    99   90   99 1   
   100   90  100 1   
   101   90  101 1   
   102  102  103 1   
   103  102  110 1   
   104  103  104 1   
   105  103  106 1   
   106  103  111 1   
   107  104  105 2   
   108  104  114 1   
   109  106  107 1   
   110  106  112 1   
   111  106  113 1   
   112  107  108 1   
   113  107  109 1   
   114  114  115 1   
   115  114  125 1   
   116  115  116 1   
   117  115  118 1   
   118  115  126 1   
   119  116  117 2   
   120  116  134 1   
   121  118  119 1   
   122  118  127 1   
   123  118  128 1   
   124  119  120 ar  
   125  119  121 ar  
   126  120  122 ar  
   127  120  129 1   
   128  121  123 ar  
   129  121  130 1   
   130  122  124 ar  
   131  122  131 1   
   132  123  124 ar  
   133  123  132 1   
   134  124  133 1   
   135  134  135 1   
   136  134  140 1   
   137  135  136 1   
   138  135  138 1   
   139  135  141 1   
   140  136  137 2   
   141  136  148 1   
   142  138  139 1   
   143  138  142 1   
   144  138  143 1   
   145  139  140 1   
   146  139  144 1   
   147  139  145 1   
   148  140  146 1   
   149  140  147 1   
   150  148  149 1   
   151  148  157 1   
   152  149  150 1   
   153  149  152 1   
   154  149  158 1   
   155  150  151 2   
   156  150  163 1   
   157  152  153 1   
   158  152  159 1   
   159  152  160 1   
   160  153  154 1   
   161  153  161 1   
   162  153  162 1   
   163  154  155 1   
   164  154  156 1   
   165  163  164 1   
   166  163  168 1   
   167  164  165 1   
   168  164  166 1   
   169  164  167 1   
   170  170  171 1   
   171  170  172 1   
   172  173  174 1   
   173  173  175 1   
   174  176  177 1   
   175  176  178 1   
   176  179  180 1   
   177  179  181 1   
@<TRIPOS>SUBSTRUCTURE
     1 MOL         1 TEMP              0 ****  ****    0 ROOT
