@<TRIPOS>MOLECULE
MOL
  184   179     1     0     0
SMALL
resp


@<TRIPOS>ATOM
      1 C1         -4.9400   -6.6290   -3.9210 c3        1 MOL     -0.321099
      2 C2         -4.6920   -5.2620   -3.3170 c         1 MOL      0.703158
      3 O1         -4.0430   -4.4870   -3.9890 o         1 MOL     -0.564047
      4 H1         -5.9990   -6.8730   -3.8420 hc        1 MOL      0.068512
      5 H2         -4.6460   -6.6220   -4.9710 hc        1 MOL      0.068512
      6 H3         -4.3550   -7.3750   -3.3830 hc        1 MOL      0.068512
      7 N1         -5.2870   -4.9190   -2.1540 n         1 MOL     -0.409410
      8 C3         -6.0750   -5.7400   -1.1820 c3        1 MOL     -0.069786
      9 C4         -5.6850   -5.4680    0.2850 c         1 MOL      0.527118
     10 O2         -4.6310   -5.0360    0.6180 o         1 MOL     -0.446286
     11 C5         -7.5740   -5.4810   -1.4680 c3        1 MOL     -0.075971
     12 C6         -7.9400   -4.0370   -1.5030 c         1 MOL      0.492293
     13 O3         -8.3780   -3.4650   -0.4940 o         1 MOL     -0.636927
     14 O4         -7.8940   -3.3740   -2.5700 o         1 MOL     -0.636927
     15 H4         -5.0570   -4.0170   -1.7590 hn        1 MOL      0.285533
     16 H5         -5.9820   -6.8200   -1.2920 h1        1 MOL      0.094361
     17 H6         -8.2320   -5.9200   -0.7200 hc        1 MOL      0.006052
     18 H7         -7.7670   -5.8960   -2.4630 hc        1 MOL      0.006052
     19 N2         -6.6360   -5.6440    1.2050 n         1 MOL     -0.621750
     20 C7         -6.4950   -5.1710    2.6060 c3        1 MOL      0.485234
     21 C8         -6.1040   -3.7430    2.8180 c         1 MOL      0.209457
     22 O5         -5.2700   -3.4250    3.6730 o         1 MOL     -0.495357
     23 C9         -5.5470   -6.1000    3.3250 c3        1 MOL     -0.400932
     24 H8         -7.5860   -5.8970    0.9580 hn        1 MOL      0.317745
     25 H9         -7.4420   -5.3270    3.1240 h1        1 MOL     -0.025055
     26 H10        -4.5350   -6.0170    2.9250 hc        1 MOL      0.102503
     27 H11        -5.4080   -5.8320    4.3650 hc        1 MOL      0.102503
     28 H12        -5.9050   -7.1320    3.3160 hc        1 MOL      0.102503
     29 N3         -6.5980   -2.8040    2.0070 n         1 MOL     -0.009846
     30 C10        -6.2980   -1.3680    2.0730 c3        1 MOL      0.110711
     31 C11        -7.5180   -0.5040    1.8140 c         1 MOL      0.105904
     32 O6         -8.6340   -1.0340    1.4020 o         1 MOL     -0.368042
     33 C12        -5.1690   -1.1350    1.0650 c3        1 MOL     -0.268855
     34 C13        -5.5210   -1.5400   -0.4040 c         1 MOL      0.750098
     35 O7         -6.6990   -1.3600   -0.8330 o         1 MOL     -0.653845
     36 O8         -4.7100   -2.1080   -1.1040 o         1 MOL     -0.653845
     37 H13        -7.4130   -3.1180    1.5030 hn        1 MOL      0.000855
     38 H14        -5.8440   -1.1690    3.0460 h1        1 MOL      0.052949
     39 H15        -4.2610   -1.6590    1.4020 hc        1 MOL      0.082831
     40 H16        -4.9750   -0.0630    0.9800 hc        1 MOL      0.082831
     41 N4         -7.4740    0.7970    2.1450 n         1 MOL     -0.120321
     42 C14        -8.4830    1.8390    1.8140 c3        1 MOL     -0.432086
     43 C15        -8.0070    3.2430    1.6920 c         1 MOL      0.733063
     44 O9         -8.8620    4.1000    1.3970 o         1 MOL     -0.608565
     45 H17        -6.6950    1.0460    2.7390 hn        1 MOL      0.241115
     46 H18        -9.2530    1.9720    2.5790 h1        1 MOL      0.162159
     47 H19        -8.9830    1.5840    0.8810 h1        1 MOL      0.162159
     48 N5         -6.7250    3.5590    1.8930 n         1 MOL     -0.441603
     49 C16        -6.0400    4.8280    1.5470 c3        1 MOL     -0.039019
     50 C17        -4.6420    4.6620    0.9270 c         1 MOL      0.634696
     51 O10        -3.9360    3.8980    1.4880 o         1 MOL     -0.475830
     52 C18        -5.8470    5.5820    2.8660 c3        1 MOL     -0.209730
     53 C19        -7.0830    6.0940    3.5390 c         1 MOL      0.698161
     54 N6         -7.8660    7.0020    2.9900 n         1 MOL     -0.786011
     55 O11        -7.3600    5.6720    4.6690 o         1 MOL     -0.581713
     56 H20        -6.0750    2.8050    2.0730 hn        1 MOL      0.267261
     57 H21        -6.7410    5.4230    0.9530 h1        1 MOL      0.033225
     58 H22        -5.3700    6.5470    2.6920 hc        1 MOL      0.086783
     59 H23        -5.2330    4.9570    3.5140 hc        1 MOL      0.086783
     60 H24        -7.5350    7.5700    2.2310 hn        1 MOL      0.363255
     61 H25        -8.7680    7.1560    3.4230 hn        1 MOL      0.363255
     62 N7         -4.3200    5.4440   -0.1230 n         1 MOL     -0.523671
     63 C20        -3.0150    5.4960   -0.8070 c3        1 MOL     -0.119921
     64 C21        -2.0000    6.2370   -0.0230 c         1 MOL      0.714960
     65 O12        -2.3210    7.0920    0.7660 o         1 MOL     -0.593815
     66 H26        -5.0840    6.0160   -0.4490 hn        1 MOL      0.309856
     67 H27        -3.1260    5.9930   -1.7700 h1        1 MOL      0.109614
     68 H28        -2.6460    4.4730   -0.8590 h1        1 MOL      0.109614
     69 N8         -0.6880    6.0000   -0.0890 n         1 MOL     -0.569243
     70 C22         0.1110    5.3370   -1.0960 c3        1 MOL     -0.051922
     71 C23         1.4040    4.7090   -0.5780 c         1 MOL      0.614717
     72 O13         2.0040    5.2330    0.3640 o         1 MOL     -0.537245
     73 C24         0.3830    6.3590   -2.2350 c3        1 MOL      0.342866
     74 C25         1.2390    5.8830   -3.3940 c3        1 MOL     -0.223440
     75 O14        -0.6580    6.9620   -2.8720 oh        1 MOL     -0.669953
     76 H29        -0.1730    6.3730    0.6970 hn        1 MOL      0.329106
     77 H30        -0.4360    4.5000   -1.5370 h1        1 MOL      0.103338
     78 H31         0.9310    7.1820   -1.7650 h1        1 MOL     -0.007161
     79 H32        -0.3340    7.7540   -3.2970 ho        1 MOL      0.422905
     80 H33         2.2380    5.5650   -3.0990 hc        1 MOL      0.056780
     81 H34         0.7600    5.0660   -3.9290 hc        1 MOL      0.056780
     82 H35         1.3520    6.6510   -4.1540 hc        1 MOL      0.056780
     83 N9          1.8400    3.6060   -1.2510 n         1 MOL     -0.485283
     84 C26         3.1500    2.9770   -0.9030 c3        1 MOL      0.021585
     85 C27         4.1310    2.7570   -2.1330 c         1 MOL      0.686376
     86 O15         3.7610    2.8110   -3.2610 o         1 MOL     -0.612941
     87 C28         2.9320    1.6640   -0.0900 c3        1 MOL      0.104863
     88 C29         2.2480    0.5820   -0.9650 c3        1 MOL      0.050284
     89 C30         2.2820    1.8630    1.2970 c3        1 MOL     -0.218248
     90 C31         2.1100   -0.7640   -0.2570 c3        1 MOL     -0.274666
     91 H36         1.2090    3.1820   -1.9180 hn        1 MOL      0.253042
     92 H37         3.6530    3.7000   -0.2660 h1        1 MOL      0.092430
     93 H38         3.9150    1.2240    0.0190 hc        1 MOL     -0.007045
     94 H39         2.7760    0.4490   -1.9090 hc        1 MOL     -0.009231
     95 H40         1.2670    0.9700   -1.2290 hc        1 MOL     -0.009231
     96 H41         1.2640    2.2000    1.0930 hc        1 MOL      0.057486
     97 H42         2.1570    0.9130    1.8070 hc        1 MOL      0.057486
     98 H43         2.8000    2.6010    1.9120 hc        1 MOL      0.057486
     99 H44         2.9940   -1.2400    0.1450 hc        1 MOL      0.079591
    100 H45         1.4120   -0.8840    0.5800 hc        1 MOL      0.079591
    101 H46         1.7480   -1.4140   -1.0540 hc        1 MOL      0.079591
    102 N10         5.3940    2.5160   -2.0020 n         1 MOL     -0.646308
    103 C32         6.3060    2.6450   -0.8050 c3        1 MOL      0.142398
    104 C33         7.5170    1.6280   -0.9150 c         1 MOL      0.497091
    105 O16         7.9170    1.2770   -2.0190 o         1 MOL     -0.491351
    106 C34         6.6980    4.1010   -0.6810 c3        1 MOL     -0.130885
    107 C35         7.4780    4.6880   -1.8310 c         1 MOL      0.737512
    108 O17         7.0650    4.9150   -3.0110 o         1 MOL     -0.685649
    109 O18         8.6520    4.9730   -1.5610 o         1 MOL     -0.685649
    110 H47         5.8220    2.4230   -2.9180 hn        1 MOL      0.365970
    111 H48         5.6640    2.4270    0.0540 h1        1 MOL      0.036466
    112 H49         7.2390    4.1630    0.2580 hc        1 MOL     -0.004157
    113 H50         5.8680    4.7870   -0.5670 hc        1 MOL     -0.004157
    114 N11         7.9780    1.2400    0.2350 n         1 MOL     -0.518931
    115 C36         9.2270    0.4480    0.3680 c3        1 MOL      0.294743
    116 C37         9.2390   -0.0840    1.8120 c         1 MOL      0.336062
    117 O19         8.7260    0.5790    2.7180 o         1 MOL     -0.523542
    118 C38        10.5510    1.3290    0.2110 c3        1 MOL     -0.119150
    119 C39        11.8350    0.5460   -0.0150 ca        1 MOL     -0.013040
    120 C40        12.7070    0.1970    1.0060 ca        1 MOL     -0.085613
    121 C41        12.1050    0.0660   -1.3450 ca        1 MOL     -0.085613
    122 C42        13.8400   -0.6410    0.7600 ca        1 MOL     -0.193716
    123 C43        13.2470   -0.6710   -1.6060 ca        1 MOL     -0.193716
    124 C44        14.1060   -1.0610   -0.5480 ca        1 MOL     -0.040187
    125 H51         7.4900    1.5330    1.0670 hn        1 MOL      0.315554
    126 H52         9.1850   -0.3540   -0.3570 h1        1 MOL     -0.023965
    127 H53        10.7170    1.9960    1.0520 hc        1 MOL      0.074698
    128 H54        10.4810    1.9960   -0.6550 hc        1 MOL      0.074698
    129 H55        12.6060    0.4550    2.0420 ha        1 MOL      0.118899
    130 H56        11.4690    0.3920   -2.1600 ha        1 MOL      0.118899
    131 H57        14.3960   -0.9680    1.6320 ha        1 MOL      0.126931
    132 H58        13.4270   -1.0650   -2.5900 ha        1 MOL      0.126931
    133 H59        14.9560   -1.7140   -0.6290 ha        1 MOL      0.074131
    134 N12         9.7850   -1.2610    2.0360 n         1 MOL     -0.048980
    135 C45        10.3330   -2.2530    1.0810 c3        1 MOL      0.120868
    136 C46         9.3050   -2.9500    0.2870 c         1 MOL      0.596790
    137 O20         9.5760   -3.4450   -0.7870 o         1 MOL     -0.576479
    138 C47        11.2120   -3.2240    1.8580 c3        1 MOL     -0.147657
    139 C48        11.1180   -2.7240    3.3530 c3        1 MOL     -0.004246
    140 C49         9.9170   -1.8180    3.4090 c3        1 MOL     -0.353332
    141 H60        11.0530   -1.8100    0.4040 h1        1 MOL      0.030420
    142 H61        10.7860   -4.2190    1.7560 hc        1 MOL      0.056356
    143 H62        12.2610   -3.1700    1.5490 hc        1 MOL      0.056356
    144 H63        10.8550   -3.5790    3.9720 hc        1 MOL      0.035160
    145 H64        12.0350   -2.3150    3.7620 hc        1 MOL      0.035160
    146 H65         9.0120   -2.4080    3.5350 h1        1 MOL      0.159899
    147 H66        10.1490   -1.0320    4.1440 h1        1 MOL      0.159899
    148 N13         8.1300   -3.1410    0.8870 n         1 MOL     -0.410100
    149 C50         6.9240   -3.6680    0.1940 c3        1 MOL     -0.006469
    150 C51         6.9420   -5.2160   -0.0730 c         1 MOL      0.581403
    151 O21         6.9990   -6.0440    0.8380 o         1 MOL     -0.579918
    152 C52         5.8620   -3.3470    1.1690 c3        1 MOL      0.116639
    153 C53         4.4590   -3.6510    0.6830 c3        1 MOL      0.079924
    154 C54         3.4040   -3.2290    1.7080 c         1 MOL      0.645778
    155 O22         3.5140   -2.1020    2.2420 o         1 MOL     -0.652481
    156 O23         2.6110   -4.1030    2.2030 o         1 MOL     -0.652481
    157 H67         7.9640   -2.7280    1.8000 hn        1 MOL      0.250620
    158 H68         6.6220   -3.1820   -0.7310 h1        1 MOL      0.104639
    159 H69         5.9630   -2.2790    1.3720 hc        1 MOL     -0.033466
    160 H70         6.0100   -3.9930    2.0440 hc        1 MOL     -0.033466
    161 H71         4.3120   -4.6680    0.3130 hc        1 MOL     -0.084623
    162 H72         4.3050   -3.0580   -0.2210 hc        1 MOL     -0.084623
    163 N14         7.1110   -5.8160   -1.2910 n         1 MOL     -0.429313
    164 C55         7.6040   -5.1860   -2.4670 c3        1 MOL     -0.036885
    165 H73         8.5890   -4.7650   -2.2680 h1        1 MOL      0.046720
    166 H74         7.6780   -5.9190   -3.2700 h1        1 MOL      0.046720
    167 H75         6.9220   -4.3890   -2.7650 h1        1 MOL      0.046720
    168 H76         7.2030   -6.8230   -1.2110 hn        1 MOL      0.289712
    169 Ca1        -9.2510   -1.3270   -1.2990 Ca        1 MOL      1.725393
    170 O24        -8.3700    1.3140   -1.7780 oh        1 MOL     -0.791773
    171 H77        -8.8770    2.0850   -2.0050 ho        1 MOL      0.367346
    172 H78        -7.4640    1.5800   -1.8820 ho        1 MOL      0.367346
    173 O25       -11.3200   -1.0380    0.5940 oh        1 MOL     -0.791773
    174 H79       -11.6000   -1.7810    1.1330 ho        1 MOL      0.367346
    175 H80       -12.1250   -0.5980    0.3550 ho        1 MOL      0.367346
    176 O26        -8.7620   -0.5730   -3.7800 oh        1 MOL     -0.791773
    177 H81        -8.9240   -1.1770   -4.5050 ho        1 MOL      0.367346
    178 H82        -9.0800    0.2720   -4.0940 ho        1 MOL      0.367346
    179 O27       -11.0880    0.4860   -2.3940 oh        1 MOL     -0.791773
    180 H83       -11.7510    0.4290   -3.0790 ho        1 MOL      0.367346
    181 H84       -10.7880    1.3900   -2.4290 ho        1 MOL      0.367346
    182 O28       -11.2430   -2.7760   -2.2140 oh        1 MOL     -0.791773
    183 H85       -12.0710   -3.1950   -1.9880 ho        1 MOL      0.367346
    184 H86       -11.1420   -2.9310   -3.1470 ho        1 MOL      0.367346
@<TRIPOS>BOND
     1    1    2 1   
     2    1    4 1   
     3    1    5 1   
     4    1    6 1   
     5    2    3 2   
     6    2    7 1   
     7    7    8 1   
     8    7   15 1   
     9    8    9 1   
    10    8   11 1   
    11    8   16 1   
    12    9   10 2   
    13    9   19 1   
    14   11   12 1   
    15   11   17 1   
    16   11   18 1   
    17   12   13 1   
    18   12   14 1   
    19   19   20 1   
    20   19   24 1   
    21   20   21 1   
    22   20   23 1   
    23   20   25 1   
    24   21   22 2   
    25   21   29 1   
    26   23   26 1   
    27   23   27 1   
    28   23   28 1   
    29   29   30 1   
    30   29   37 1   
    31   30   31 1   
    32   30   33 1   
    33   30   38 1   
    34   31   32 2   
    35   31   41 1   
    36   33   34 1   
    37   33   39 1   
    38   33   40 1   
    39   34   35 1   
    40   34   36 1   
    41   41   42 1   
    42   41   45 1   
    43   42   43 1   
    44   42   46 1   
    45   42   47 1   
    46   43   44 2   
    47   43   48 1   
    48   48   49 1   
    49   48   56 1   
    50   49   50 1   
    51   49   52 1   
    52   49   57 1   
    53   50   51 2   
    54   50   62 1   
    55   52   53 1   
    56   52   58 1   
    57   52   59 1   
    58   53   54 1   
    59   53   55 2   
    60   54   60 1   
    61   54   61 1   
    62   62   63 1   
    63   62   66 1   
    64   63   64 1   
    65   63   67 1   
    66   63   68 1   
    67   64   65 2   
    68   64   69 1   
    69   69   70 1   
    70   69   76 1   
    71   70   71 1   
    72   70   73 1   
    73   70   77 1   
    74   71   72 2   
    75   71   83 1   
    76   73   74 1   
    77   73   75 1   
    78   73   78 1   
    79   74   80 1   
    80   74   81 1   
    81   74   82 1   
    82   75   79 1   
    83   83   84 1   
    84   83   91 1   
    85   84   85 1   
    86   84   87 1   
    87   84   92 1   
    88   85   86 2   
    89   85  102 1   
    90   87   88 1   
    91   87   89 1   
    92   87   93 1   
    93   88   90 1   
    94   88   94 1   
    95   88   95 1   
    96   89   96 1   
    97   89   97 1   
    98   89   98 1   
    99   90   99 1   
   100   90  100 1   
   101   90  101 1   
   102  102  103 1   
   103  102  110 1   
   104  103  104 1   
   105  103  106 1   
   106  103  111 1   
   107  104  105 2   
   108  104  114 1   
   109  106  107 1   
   110  106  112 1   
   111  106  113 1   
   112  107  108 1   
   113  107  109 1   
   114  114  115 1   
   115  114  125 1   
   116  115  116 1   
   117  115  118 1   
   118  115  126 1   
   119  116  117 2   
   120  116  134 1   
   121  118  119 1   
   122  118  127 1   
   123  118  128 1   
   124  119  120 ar  
   125  119  121 ar  
   126  120  122 ar  
   127  120  129 1   
   128  121  123 ar  
   129  121  130 1   
   130  122  124 ar  
   131  122  131 1   
   132  123  124 ar  
   133  123  132 1   
   134  124  133 1   
   135  134  135 1   
   136  134  140 1   
   137  135  136 1   
   138  135  138 1   
   139  135  141 1   
   140  136  137 2   
   141  136  148 1   
   142  138  139 1   
   143  138  142 1   
   144  138  143 1   
   145  139  140 1   
   146  139  144 1   
   147  139  145 1   
   148  140  146 1   
   149  140  147 1   
   150  148  149 1   
   151  148  157 1   
   152  149  150 1   
   153  149  152 1   
   154  149  158 1   
   155  150  151 2   
   156  150  163 1   
   157  152  153 1   
   158  152  159 1   
   159  152  160 1   
   160  153  154 1   
   161  153  161 1   
   162  153  162 1   
   163  154  155 1   
   164  154  156 1   
   165  163  164 1   
   166  163  168 1   
   167  164  165 1   
   168  164  166 1   
   169  164  167 1   
   170  170  171 1   
   171  170  172 1   
   172  173  174 1   
   173  173  175 1   
   174  176  177 1   
   175  176  178 1   
   176  179  180 1   
   177  179  181 1   
   178  182  183 1   
   179  182  184 1   
@<TRIPOS>SUBSTRUCTURE
     1 MOL         1 TEMP              0 ****  ****    0 ROOT
