@<TRIPOS>MOLECULE
MOL
  181   177     1     0     0
SMALL
resp


@<TRIPOS>ATOM
      1 C1         -6.8050   -8.2040   -0.9280 c3        1 MOL     -0.347916
      2 C2         -5.6670   -7.1850   -1.0670 c         1 MOL      0.493490
      3 O1         -4.5100   -7.3530   -0.5530 o         1 MOL     -0.558657
      4 H1         -7.7110   -7.8010   -1.3820 hc        1 MOL      0.103752
      5 H2         -6.5280   -9.1300   -1.4330 hc        1 MOL      0.103752
      6 H3         -6.9860   -8.4050    0.1280 hc        1 MOL      0.103752
      7 N1         -5.9420   -5.9450   -1.4740 n         1 MOL     -0.307472
      8 C3         -7.2760   -5.3820   -1.7930 c3        1 MOL     -0.028437
      9 C4         -8.2620   -4.9630   -0.6900 c         1 MOL      0.417243
     10 O2         -9.5000   -5.1320   -0.8000 o         1 MOL     -0.567290
     11 C5         -6.9680   -4.1900   -2.6730 c3        1 MOL     -0.400301
     12 C6         -6.2130   -2.9650   -2.1480 c         1 MOL      0.990470
     13 O3         -5.8410   -2.9330   -0.9600 o         1 MOL     -0.841732
     14 O4         -6.0080   -1.9830   -2.8520 o         1 MOL     -0.841732
     15 H4         -5.1910   -5.2640   -1.5170 hn        1 MOL      0.234476
     16 H5         -7.7260   -6.1570   -2.4080 h1        1 MOL      0.119615
     17 H6         -7.8520   -3.7570   -3.1580 hc        1 MOL      0.102522
     18 H7         -6.4010   -4.6530   -3.4770 hc        1 MOL      0.102522
     19 N2         -7.7670   -4.4820    0.4410 n         1 MOL     -0.272240
     20 C7         -8.4750   -4.0030    1.6230 c3        1 MOL      0.274548
     21 C8         -8.6830   -2.4910    1.7780 c         1 MOL      0.302993
     22 O5         -9.5590   -2.0560    2.4780 o         1 MOL     -0.538397
     23 C9         -7.8340   -4.6780    2.8050 c3        1 MOL     -0.292602
     24 H8         -6.7590   -4.4860    0.4390 hn        1 MOL      0.263403
     25 H9         -9.4630   -4.4260    1.5010 h1        1 MOL      0.029448
     26 H10        -6.7600   -4.5190    2.7270 hc        1 MOL      0.079074
     27 H11        -8.2790   -4.3220    3.7370 hc        1 MOL      0.079074
     28 H12        -7.9930   -5.7510    2.6760 hc        1 MOL      0.079074
     29 N3         -7.8260   -1.7190    1.1110 n         1 MOL     -0.038987
     30 C10        -7.9130   -0.1920    1.0920 c3        1 MOL     -0.079642
     31 C11        -7.7160    0.3600   -0.3020 c         1 MOL      0.353950
     32 O6         -6.6420    0.1300   -0.8790 o         1 MOL     -0.355830
     33 C12        -6.8340    0.4100    2.0060 c3        1 MOL      0.001786
     34 C13        -5.5170   -0.3090    2.0640 c         1 MOL      0.727260
     35 O7         -5.0890   -0.9870    1.0690 o         1 MOL     -0.727938
     36 O8         -4.7780   -0.2410    3.0700 o         1 MOL     -0.727938
     37 H13        -7.1340   -2.1460    0.5100 hn        1 MOL      0.082001
     38 H14        -8.8570    0.0810    1.5740 h1        1 MOL      0.069509
     39 H15        -7.2400    0.3950    3.0170 hc        1 MOL     -0.007154
     40 H16        -6.6480    1.4420    1.7380 hc        1 MOL     -0.007154
     41 N4         -8.6200    1.2350   -0.7460 n         1 MOL     -0.382566
     42 C14        -8.5920    1.8070   -2.0900 c3        1 MOL     -0.069176
     43 C15        -7.5200    2.9070   -2.2310 c         1 MOL      0.492219
     44 O9         -6.8200    2.9300   -3.2550 o         1 MOL     -0.555440
     45 H17        -9.4660    1.4110   -0.2360 hn        1 MOL      0.279108
     46 H18        -9.5870    2.1920   -2.3210 h1        1 MOL      0.118359
     47 H19        -8.5640    1.0210   -2.8460 h1        1 MOL      0.118359
     48 N5         -7.5460    3.9750   -1.3560 n         1 MOL     -0.512155
     49 C16        -6.6260    5.1680   -1.3890 c3        1 MOL      0.545630
     50 C17        -5.4940    5.0840   -0.4110 c         1 MOL      0.335266
     51 O10        -5.4880    5.8800    0.5760 o         1 MOL     -0.536143
     52 C18        -7.5170    6.4420   -1.3430 c3        1 MOL     -0.683694
     53 C19        -6.6100    7.7170   -1.3660 c         1 MOL      0.809040
     54 N6         -6.9450    8.7940   -0.6950 n         1 MOL     -0.843448
     55 O11        -5.5720    7.6350   -1.9350 o         1 MOL     -0.552491
     56 H20        -8.2580    4.1810   -0.6770 hn        1 MOL      0.283973
     57 H21        -6.0730    5.2360   -2.3240 h1        1 MOL      0.003280
     58 H22        -8.2310    6.4250   -0.5270 hc        1 MOL      0.153083
     59 H23        -8.0690    6.4840   -2.2820 hc        1 MOL      0.153083
     60 H24        -7.5750    8.5500    0.0570 hn        1 MOL      0.382083
     61 H25        -6.3940    9.6320   -0.7590 hn        1 MOL      0.382083
     62 N7         -4.6010    4.1410   -0.5190 n         1 MOL     -0.201333
     63 C20        -3.5570    3.9330    0.4280 c3        1 MOL      0.021764
     64 C21        -3.1440    2.4820    0.6250 c         1 MOL      0.759125
     65 O12        -3.6010    1.5830   -0.0890 o         1 MOL     -0.719111
     66 H26        -4.7060    3.4720   -1.2720 hn        1 MOL      0.104488
     67 H27        -3.9770    4.1410    1.4170 h1        1 MOL      0.076444
     68 H28        -2.6700    4.5290    0.2630 h1        1 MOL      0.076444
     69 N8         -2.1090    2.1840    1.4860 n         1 MOL     -0.651235
     70 C22        -1.1270    3.0600    2.1650 c3        1 MOL      0.003607
     71 C23         0.3190    2.5860    2.1780 c         1 MOL      0.321708
     72 O13         1.2630    3.3840    2.3550 o         1 MOL     -0.476680
     73 C24        -1.6410    3.4590    3.5390 c3        1 MOL      0.305473
     74 C25        -0.7320    4.1970    4.4870 c3        1 MOL     -0.345477
     75 O14        -2.8150    4.2060    3.4270 oh        1 MOL     -0.613086
     76 H29        -1.9820    1.2110    1.7010 hn        1 MOL      0.346586
     77 H30        -1.1670    3.9590    1.5390 h1        1 MOL      0.153557
     78 H31        -2.0240    2.5890    4.0870 h1        1 MOL      0.041020
     79 H32        -3.2550    3.9500    4.2400 ho        1 MOL      0.390762
     80 H33        -1.2090    4.5680    5.3920 hc        1 MOL      0.088599
     81 H34         0.1040    3.5750    4.7900 hc        1 MOL      0.088599
     82 H35        -0.4700    5.1570    4.0290 hc        1 MOL      0.088599
     83 N9          0.5040    1.2660    1.8760 n         1 MOL     -0.018249
     84 C26         1.7360    0.4720    2.0180 c3        1 MOL     -0.436032
     85 C27         2.0690   -0.3530    0.7260 c         1 MOL      0.468845
     86 O15         1.2900   -1.1640    0.2260 o         1 MOL     -0.528900
     87 C28         1.6470   -0.5030    3.2150 c3        1 MOL      0.283123
     88 C29         1.3240    0.2590    4.4740 c3        1 MOL     -0.053137
     89 C30         2.8620   -1.3260    3.4790 c3        1 MOL     -0.260440
     90 C31         2.3050    1.2920    4.8650 c3        1 MOL      0.026349
     91 H36        -0.2340    0.6980    1.4860 hn        1 MOL      0.163494
     92 H37         2.5720    1.1580    2.1720 h1        1 MOL      0.181026
     93 H38         0.7340   -1.0840    3.1080 hc        1 MOL     -0.044291
     94 H39         1.3800   -0.4490    5.3000 hc        1 MOL     -0.020713
     95 H40         0.2890    0.5640    4.3790 hc        1 MOL     -0.020713
     96 H41         3.0070   -2.0050    2.6360 hc        1 MOL      0.085568
     97 H42         3.6860   -0.6710    3.7790 hc        1 MOL      0.085568
     98 H43         2.7140   -2.0600    4.2610 hc        1 MOL      0.085568
     99 H44         3.3540    1.0540    5.0460 hc        1 MOL      0.002278
    100 H45         2.1700    2.0460    4.1000 hc        1 MOL      0.002278
    101 H46         2.0530    1.7870    5.8060 hc        1 MOL      0.002278
    102 N10         3.2110   -0.1690    0.0410 n         1 MOL     -0.202397
    103 C32         4.2170    0.9010    0.2300 c3        1 MOL     -0.058725
    104 C33         5.5830    0.6440   -0.5940 c         1 MOL      0.575467
    105 O16         5.5870   -0.1600   -1.4790 o         1 MOL     -0.500530
    106 C34         3.6820    2.2480   -0.2740 c3        1 MOL     -0.181066
    107 C35         3.1130    2.1390   -1.6840 c         1 MOL      0.722078
    108 O17         3.7910    2.5450   -2.6530 o         1 MOL     -0.725499
    109 O18         1.9490    1.7670   -1.8480 o         1 MOL     -0.725499
    110 H47         3.4990   -0.9070   -0.5760 hn        1 MOL      0.242751
    111 H48         4.6330    0.8930    1.2390 h1        1 MOL      0.033532
    112 H49         4.5050    2.9720   -0.2150 hc        1 MOL      0.030687
    113 H50         2.8760    2.5730    0.3850 hc        1 MOL      0.030687
    114 N11         6.6680    1.2730   -0.1910 n         1 MOL     -0.502057
    115 C36         7.9960    1.1920   -0.6700 c3        1 MOL      0.413589
    116 C37         9.1450    0.9370    0.4060 c         1 MOL      0.121417
    117 O19         9.0650    1.5650    1.4760 o         1 MOL     -0.507188
    118 C38         8.2720    2.6150   -1.3530 c3        1 MOL     -0.338296
    119 C39         9.6970    2.8640   -1.6950 ca        1 MOL      0.166429
    120 C40        10.5210    3.5870   -0.8160 ca        1 MOL     -0.174159
    121 C41        10.2450    2.4180   -2.9350 ca        1 MOL     -0.174159
    122 C42        11.7980    4.0200   -1.2210 ca        1 MOL     -0.104949
    123 C43        11.5740    2.7460   -3.2830 ca        1 MOL     -0.104949
    124 C44        12.3690    3.5190   -2.4300 ca        1 MOL     -0.163326
    125 H51         6.5100    1.9500    0.5340 hn        1 MOL      0.296532
    126 H52         8.0480    0.3680   -1.3940 h1        1 MOL      0.012921
    127 H53         7.9900    3.3960   -0.6440 hc        1 MOL      0.107858
    128 H54         7.6270    2.6230   -2.2350 hc        1 MOL      0.107858
    129 H55         9.9930    3.9120    0.0720 ha        1 MOL      0.129178
    130 H56         9.5950    1.9010   -3.6250 ha        1 MOL      0.129178
    131 H57        12.3900    4.7010   -0.6140 ha        1 MOL      0.099282
    132 H58        11.8950    2.3490   -4.2450 ha        1 MOL      0.099282
    133 H59        13.4190    3.6200   -2.6580 ha        1 MOL      0.109660
    134 N12        10.1200    0.0980    0.2590 n         1 MOL      0.163121
    135 C45        10.5030   -0.7710   -0.8570 c3        1 MOL      0.093362
    136 C46         9.4680   -1.8860   -1.2290 c         1 MOL      0.352012
    137 O20         9.0400   -2.1470   -2.3750 o         1 MOL     -0.547966
    138 C47        11.8720   -1.4820   -0.5080 c3        1 MOL     -0.056485
    139 C48        12.2960   -0.7610    0.7970 c3        1 MOL      0.005285
    140 C49        11.0400   -0.1550    1.3870 c3        1 MOL     -0.171012
    141 H60        10.6470   -0.1160   -1.7070 h1        1 MOL      0.002321
    142 H61        11.7570   -2.5270   -0.2370 hc        1 MOL      0.040529
    143 H62        12.5920   -1.3330   -1.3160 hc        1 MOL      0.040529
    144 H63        12.8570   -1.4060    1.4750 hc        1 MOL     -0.000540
    145 H64        12.9420    0.0410    0.4290 hc        1 MOL     -0.000540
    146 H65        10.6110   -0.9310    2.0290 h1        1 MOL      0.105413
    147 H66        11.2760    0.6490    2.0810 h1        1 MOL      0.105413
    148 N13         8.7990   -2.3820   -0.2020 n         1 MOL     -0.395917
    149 C50         7.5690   -3.2700   -0.3240 c3        1 MOL      0.207381
    150 C51         8.0610   -4.5570   -1.0640 c         1 MOL      0.498594
    151 O21         8.7680   -5.3820   -0.4960 o         1 MOL     -0.606842
    152 C52         7.1310   -3.6210    1.0780 c3        1 MOL     -0.004354
    153 C53         6.1820   -2.6450    1.7530 c3        1 MOL     -0.190788
    154 C54         5.9400   -3.1360    3.2280 c         1 MOL      0.784357
    155 O22         5.2020   -4.1650    3.4750 o         1 MOL     -0.744455
    156 O23         6.4910   -2.5340    4.1290 o         1 MOL     -0.744455
    157 H67         9.1100   -2.0820    0.7130 hn        1 MOL      0.245945
    158 H68         6.7440   -2.7670   -0.8340 h1        1 MOL      0.075430
    159 H69         7.9020   -3.7710    1.8420 hc        1 MOL      0.006076
    160 H70         6.6700   -4.6040    1.0340 hc        1 MOL      0.006076
    161 H71         5.2610   -2.6010    1.1680 hc        1 MOL     -0.024368
    162 H72         6.5530   -1.6220    1.7180 hc        1 MOL     -0.024368
    163 N14         7.8400   -4.8050   -2.3530 n         1 MOL     -0.298980
    164 C55         6.8130   -4.2110   -3.2300 c3        1 MOL     -0.152195
    165 H73         6.6570   -3.1680   -2.9520 h1        1 MOL      0.076811
    166 H74         7.1460   -4.2640   -4.2670 h1        1 MOL      0.076811
    167 H75         5.8780   -4.7600   -3.1190 h1        1 MOL      0.076811
    168 H76         8.4580   -5.5070   -2.7530 hn        1 MOL      0.250512
    169 Ca1        -4.2230   -0.8580   -1.2670 Ca        1 MOL      1.803994
    170 O24        -2.9120   -2.3900   -2.9170 oh        1 MOL     -0.844506
    171 H77        -2.6710   -3.2430   -2.5640 ho        1 MOL      0.425302
    172 H78        -2.4510   -2.3380   -3.7580 ho        1 MOL      0.425302
    173 O25        -2.3660   -1.6410    0.6080 oh        1 MOL     -0.844506
    174 H79        -2.6040   -1.3310    1.4730 ho        1 MOL      0.425302
    175 H80        -1.4910   -2.0190    0.7270 ho        1 MOL      0.425302
    176 O26        -4.7720    1.2050   -3.1380 oh        1 MOL     -0.844506
    177 H81        -5.6000    1.6320   -3.3380 ho        1 MOL      0.425302
    178 H82        -4.1040    1.7950   -3.4800 ho        1 MOL      0.425302
    179 O27        -1.7780    0.3790   -2.1890 oh        1 MOL     -0.844506
    180 H83        -1.6080    1.2540   -1.8200 ho        1 MOL      0.425302
    181 H84        -1.0910    0.2610   -2.8480 ho        1 MOL      0.425302
@<TRIPOS>BOND
     1    1    2 1   
     2    1    4 1   
     3    1    5 1   
     4    1    6 1   
     5    2    3 2   
     6    2    7 1   
     7    7    8 1   
     8    7   15 1   
     9    8    9 1   
    10    8   11 1   
    11    8   16 1   
    12    9   10 2   
    13    9   19 1   
    14   11   12 1   
    15   11   17 1   
    16   11   18 1   
    17   12   13 1   
    18   12   14 1   
    19   19   20 1   
    20   19   24 1   
    21   20   21 1   
    22   20   23 1   
    23   20   25 1   
    24   21   22 2   
    25   21   29 1   
    26   23   26 1   
    27   23   27 1   
    28   23   28 1   
    29   29   30 1   
    30   29   37 1   
    31   30   31 1   
    32   30   33 1   
    33   30   38 1   
    34   31   32 2   
    35   31   41 1   
    36   33   34 1   
    37   33   39 1   
    38   33   40 1   
    39   34   35 1   
    40   34   36 1   
    41   41   42 1   
    42   41   45 1   
    43   42   43 1   
    44   42   46 1   
    45   42   47 1   
    46   43   44 2   
    47   43   48 1   
    48   48   49 1   
    49   48   56 1   
    50   49   50 1   
    51   49   52 1   
    52   49   57 1   
    53   50   51 2   
    54   50   62 1   
    55   52   53 1   
    56   52   58 1   
    57   52   59 1   
    58   53   54 1   
    59   53   55 2   
    60   54   60 1   
    61   54   61 1   
    62   62   63 1   
    63   62   66 1   
    64   63   64 1   
    65   63   67 1   
    66   63   68 1   
    67   64   65 2   
    68   64   69 1   
    69   69   70 1   
    70   69   76 1   
    71   70   71 1   
    72   70   73 1   
    73   70   77 1   
    74   71   72 2   
    75   71   83 1   
    76   73   74 1   
    77   73   75 1   
    78   73   78 1   
    79   74   80 1   
    80   74   81 1   
    81   74   82 1   
    82   75   79 1   
    83   83   84 1   
    84   83   91 1   
    85   84   85 1   
    86   84   87 1   
    87   84   92 1   
    88   85   86 2   
    89   85  102 1   
    90   87   88 1   
    91   87   89 1   
    92   87   93 1   
    93   88   90 1   
    94   88   94 1   
    95   88   95 1   
    96   89   96 1   
    97   89   97 1   
    98   89   98 1   
    99   90   99 1   
   100   90  100 1   
   101   90  101 1   
   102  102  103 1   
   103  102  110 1   
   104  103  104 1   
   105  103  106 1   
   106  103  111 1   
   107  104  105 2   
   108  104  114 1   
   109  106  107 1   
   110  106  112 1   
   111  106  113 1   
   112  107  108 1   
   113  107  109 1   
   114  114  115 1   
   115  114  125 1   
   116  115  116 1   
   117  115  118 1   
   118  115  126 1   
   119  116  117 2   
   120  116  134 1   
   121  118  119 1   
   122  118  127 1   
   123  118  128 1   
   124  119  120 ar  
   125  119  121 ar  
   126  120  122 ar  
   127  120  129 1   
   128  121  123 ar  
   129  121  130 1   
   130  122  124 ar  
   131  122  131 1   
   132  123  124 ar  
   133  123  132 1   
   134  124  133 1   
   135  134  135 1   
   136  134  140 1   
   137  135  136 1   
   138  135  138 1   
   139  135  141 1   
   140  136  137 2   
   141  136  148 1   
   142  138  139 1   
   143  138  142 1   
   144  138  143 1   
   145  139  140 1   
   146  139  144 1   
   147  139  145 1   
   148  140  146 1   
   149  140  147 1   
   150  148  149 1   
   151  148  157 1   
   152  149  150 1   
   153  149  152 1   
   154  149  158 1   
   155  150  151 2   
   156  150  163 1   
   157  152  153 1   
   158  152  159 1   
   159  152  160 1   
   160  153  154 1   
   161  153  161 1   
   162  153  162 1   
   163  154  155 1   
   164  154  156 1   
   165  163  164 1   
   166  163  168 1   
   167  164  165 1   
   168  164  166 1   
   169  164  167 1   
   170  170  171 1   
   171  170  172 1   
   172  173  174 1   
   173  173  175 1   
   174  176  177 1   
   175  176  178 1   
   176  179  180 1   
   177  179  181 1   
@<TRIPOS>SUBSTRUCTURE
     1 MOL         1 TEMP              0 ****  ****    0 ROOT
