@<TRIPOS>MOLECULE
MOL
  182   178     1     0     0
SMALL
resp


@<TRIPOS>ATOM
      1 C1          0.0050   -3.3670    6.1660 c3        1 MOL     -0.273088
      2 C2          0.1110   -3.2400    4.6040 c         1 MOL      0.754987
      3 O1         -0.8430   -3.1210    3.8910 o         1 MOL     -0.566298
      4 H1          0.5900   -4.2240    6.5010 hc        1 MOL      0.075299
      5 H2          0.3910   -2.4600    6.6320 hc        1 MOL      0.075299
      6 H3         -1.0380   -3.5060    6.4500 hc        1 MOL      0.075299
      7 N1          1.3180   -3.3230    4.0980 n         1 MOL     -0.562770
      8 C3          1.7100   -2.9340    2.6810 c3        1 MOL      0.133867
      9 C4          1.7360   -4.1870    1.7950 c         1 MOL      0.646641
     10 O2          2.3580   -5.1530    2.0980 o         1 MOL     -0.560581
     11 C5          3.1110   -2.3680    2.7340 c3        1 MOL      0.033364
     12 C6          3.4440   -1.5870    1.5330 c         1 MOL      0.514294
     13 O3          4.1580   -0.5430    1.6400 o         1 MOL     -0.626046
     14 O4          2.9280   -1.9210    0.4200 o         1 MOL     -0.626046
     15 H4          2.0750   -3.3900    4.7690 hn        1 MOL      0.304376
     16 H5          1.0700   -2.1500    2.2700 h1        1 MOL     -0.268825
     17 H6          3.8240   -3.1830    2.8350 hc        1 MOL      0.015961
     18 H7          3.2170   -1.7260    3.6090 hc        1 MOL      0.015961
     19 N2          1.0940   -4.1300    0.6040 n         1 MOL     -0.243643
     20 C7          1.0580   -5.2160   -0.4130 c3        1 MOL      0.024128
     21 C8          2.3580   -5.3390   -1.3040 c         1 MOL      0.517741
     22 O5          2.5090   -6.4530   -1.8030 o         1 MOL     -0.575688
     23 C9         -0.2800   -5.0770   -1.0190 c3        1 MOL      0.080703
     24 C10        -0.6990   -6.2800   -1.8360 c3        1 MOL     -0.086362
     25 C11        -2.1530   -6.2350   -2.2810 c3        1 MOL     -0.115733
     26 C12        -2.2750   -7.3480   -3.4000 c3        1 MOL      0.067082
     27 N3         -3.6740   -7.4000   -3.9200 n4        1 MOL     -0.251081
     28 H8          0.6630   -3.2460    0.3570 hn        1 MOL     -0.115852
     29 H9          1.1230   -6.1190    0.1880 h1        1 MOL      0.093421
     30 H10        -0.2650   -4.2630   -1.7410 hc        1 MOL      0.026338
     31 H11        -1.0270   -4.9550   -0.2350 hc        1 MOL      0.026338
     32 H12        -0.4990   -7.2100   -1.3030 hc        1 MOL      0.043776
     33 H13        -0.0660   -6.4550   -2.7030 hc        1 MOL      0.043776
     34 H14        -2.4880   -5.2370   -2.5500 hc        1 MOL      0.053414
     35 H15        -2.7420   -6.4680   -1.3890 hc        1 MOL      0.053414
     36 H16        -1.8880   -8.3030   -3.0280 hx        1 MOL      0.075410
     37 H17        -1.6150   -7.0420   -4.2150 hx        1 MOL      0.075410
     38 H18        -4.3370   -7.7600   -3.2590 hn        1 MOL      0.248223
     39 H19        -3.9440   -6.4650   -4.2190 hn        1 MOL      0.248223
     40 H20        -3.7500   -7.9280   -4.7750 hn        1 MOL      0.248223
     41 N4          3.2070   -4.3400   -1.3210 n         1 MOL     -0.170725
     42 C13         4.5330   -4.3880   -2.0130 c3        1 MOL      0.123032
     43 C14         5.6720   -4.2420   -0.9890 c         1 MOL      0.317484
     44 O6          6.8320   -4.7520   -1.1230 o         1 MOL     -0.521125
     45 C15         4.4790   -3.3600   -3.1320 c3        1 MOL     -0.433619
     46 C16         4.1410   -1.9720   -2.7200 c         1 MOL      0.886416
     47 O7          4.8070   -1.3400   -1.9080 o         1 MOL     -0.791754
     48 O8          3.0920   -1.4000   -3.0950 o         1 MOL     -0.791754
     49 H21         3.0080   -3.4510   -0.8750 hn        1 MOL      0.052623
     50 H22         4.6900   -5.3320   -2.5480 h1        1 MOL      0.088082
     51 H23         3.7370   -3.6400   -3.8840 hc        1 MOL      0.125800
     52 H24         5.4560   -3.3050   -3.6160 hc        1 MOL      0.125800
     53 N5          5.4530   -3.5610    0.1570 n         1 MOL      0.019837
     54 C17         6.4390   -3.2570    1.2180 c3        1 MOL     -0.221267
     55 C18         7.1800   -1.8970    1.1770 c         1 MOL      0.529909
     56 O9          8.0270   -1.5920    2.0420 o         1 MOL     -0.533639
     57 H25         4.5660   -3.1020    0.2930 hn        1 MOL     -0.010136
     58 H26         7.2030   -4.0370    1.1880 h1        1 MOL      0.124249
     59 H27         5.9120   -3.2970    2.1730 h1        1 MOL      0.124249
     60 N6          6.8100   -1.0240    0.1820 n         1 MOL     -0.245507
     61 C19         7.5570    0.1950   -0.0510 c3        1 MOL      0.142539
     62 C20         6.6140    1.4410   -0.3520 c         1 MOL      0.519818
     63 O10         5.4600    1.3010   -0.8360 o         1 MOL     -0.509456
     64 C21         8.7100   -0.1240   -1.0590 c3        1 MOL     -0.370052
     65 C22         9.5880    1.0180   -1.2580 c         1 MOL      0.764053
     66 N7          9.8450    1.4620   -2.3950 n         1 MOL     -0.797883
     67 O11         9.9910    1.6340   -0.2790 o         1 MOL     -0.609173
     68 H28         6.2050   -1.4310   -0.5110 hn        1 MOL      0.265522
     69 H29         8.0750    0.4730    0.8650 h1        1 MOL      0.048053
     70 H30         8.1890   -0.3100   -1.9880 hc        1 MOL      0.100136
     71 H31         9.1880   -1.0630   -0.7820 hc        1 MOL      0.100136
     72 H32         9.5510    0.9250   -3.1990 hn        1 MOL      0.370942
     73 H33        10.4310    2.2770   -2.5150 hn        1 MOL      0.370942
     74 N8          7.0060    2.7030    0.0100 n         1 MOL     -0.510714
     75 C23         6.2580    3.9740   -0.2460 c3        1 MOL      0.066258
     76 C24         5.0040    4.1650    0.5830 c         1 MOL      0.512032
     77 O12         4.9320    3.8410    1.7960 o         1 MOL     -0.484720
     78 H34         7.8970    2.7150    0.4800 hn        1 MOL      0.341522
     79 H35         6.0600    4.0940   -1.3120 h1        1 MOL      0.052866
     80 H36         6.8980    4.8280   -0.0260 h1        1 MOL      0.052866
     81 N9          3.8960    4.5900   -0.0280 n         1 MOL     -0.532608
     82 C25         2.5630    4.6170    0.5780 c3        1 MOL      0.259213
     83 C26         2.0100    3.2550    1.0140 c         1 MOL      0.364896
     84 O13         2.6750    2.2840    0.6170 o         1 MOL     -0.506970
     85 C27         1.5740    5.4130   -0.3350 c3        1 MOL     -0.040541
     86 C28         1.9800    6.7840   -0.8260 ca        1 MOL      0.059805
     87 C29         2.0790    6.9740   -2.1720 ca        1 MOL     -0.169011
     88 C30         2.1100    7.8570    0.1100 ca        1 MOL     -0.169011
     89 C31         2.2960    8.2830   -2.6200 ca        1 MOL     -0.212330
     90 C32         2.3840    9.1760   -0.3170 ca        1 MOL     -0.212330
     91 C33         2.5450    9.4150   -1.7280 ca        1 MOL      0.247108
     92 O14         2.9560   10.6280   -2.1320 oh        1 MOL     -0.401770
     93 H37         4.0170    4.9180   -0.9700 hn        1 MOL      0.224767
     94 H38         2.6390    5.1440    1.5260 h1        1 MOL      0.046208
     95 H39         0.6070    5.5450    0.1410 hc        1 MOL      0.020146
     96 H40         1.2900    4.7670   -1.1690 hc        1 MOL      0.020146
     97 H41         1.9170    6.1770   -2.8750 ha        1 MOL      0.129332
     98 H42         1.9630    7.6680    1.1640 ha        1 MOL      0.129332
     99 H43         2.4450    8.4650   -3.6800 ha        1 MOL      0.146074
    100 H44         2.4420    9.9860    0.3870 ha        1 MOL      0.146074
    101 H45         3.1430   10.7370   -3.0700 ho        1 MOL      0.346062
    102 N10         0.9150    3.2270    1.7530 n         1 MOL     -0.576409
    103 C34         0.2550    2.0550    2.3880 c3        1 MOL      0.263228
    104 C35        -0.1680    0.9600    1.3720 c         1 MOL      0.099658
    105 O15         0.7070    0.3930    0.7260 o         1 MOL      0.006389
    106 C36         1.2070    1.4360    3.4600 c3        1 MOL      0.343117
    107 C37         0.4800    0.3080    4.2550 c3        1 MOL     -0.089861
    108 C38         1.7380    2.4140    4.5020 c3        1 MOL     -0.325834
    109 C39        -0.6760    0.6540    5.2470 c3        1 MOL     -0.337651
    110 H46         0.5410    4.1270    2.0270 hn        1 MOL      0.296884
    111 H47        -0.6470    2.3670    2.9290 h1        1 MOL      0.022118
    112 H48         2.0870    1.0310    2.9700 hc        1 MOL     -0.010324
    113 H49         1.2980   -0.1600    4.7950 hc        1 MOL      0.075818
    114 H50         0.0720   -0.4260    3.5590 hc        1 MOL      0.075818
    115 H51         0.8790    2.9390    4.9090 hc        1 MOL      0.074907
    116 H52         2.4170    1.9280    5.2040 hc        1 MOL      0.074907
    117 H53         2.3890    3.1500    4.0290 hc        1 MOL      0.074907
    118 H54        -1.5140    1.1120    4.7250 hc        1 MOL      0.083034
    119 H55        -0.9030   -0.3030    5.7270 hc        1 MOL      0.083034
    120 H56        -0.2820    1.2850    6.0380 hc        1 MOL      0.083034
    121 N11        -1.4950    0.6290    1.2320 n         1 MOL     -0.385647
    122 C40        -1.9080   -0.4390    0.2660 c3        1 MOL     -0.186309
    123 C41        -3.3810   -0.3200   -0.2060 c         1 MOL      0.810627
    124 O16        -3.7340   -0.9490   -1.1710 o         1 MOL     -0.566883
    125 C42        -1.6710   -1.8770    0.8430 c3        1 MOL      0.404742
    126 O17        -2.3280   -1.9590    2.0970 oh        1 MOL     -0.620696
    127 H57        -2.1850    1.1720    1.7320 hn        1 MOL      0.271365
    128 H58        -1.3060   -0.4570   -0.6480 h1        1 MOL      0.053356
    129 H59        -0.6160   -2.0880    1.0160 h1        1 MOL      0.009574
    130 H60        -2.1230   -2.6350    0.2070 h1        1 MOL      0.009574
    131 H61        -1.7340   -2.3320    2.7550 ho        1 MOL      0.362380
    132 N12        -4.1310    0.5970    0.4540 n         1 MOL     -0.732375
    133 C43        -5.5740    0.7570    0.1900 c3        1 MOL      0.212216
    134 C44        -5.8420    1.1750   -1.2910 c         1 MOL      0.662203
    135 O18        -5.1070    1.9930   -1.8140 o         1 MOL     -0.609293
    136 C45        -6.2870    1.6890    1.1970 c3        1 MOL     -0.384267
    137 H62        -3.7330    1.2080    1.1470 hn        1 MOL      0.376977
    138 H63        -6.0270   -0.2370    0.2150 h1        1 MOL      0.064075
    139 H64        -7.2510    1.9690    0.7750 hc        1 MOL      0.122765
    140 H65        -6.2830    1.1130    2.1170 hc        1 MOL      0.122765
    141 H66        -5.7200    2.5900    1.4480 hc        1 MOL      0.122765
    142 N13        -6.8790    0.7740   -1.9680 n         1 MOL     -0.582092
    143 C46        -7.9790   -0.0830   -1.4980 c3        1 MOL      0.249391
    144 C47        -9.1830    0.2850   -2.4260 c         1 MOL      0.488909
    145 O19        -9.0730    0.1920   -3.6350 o         1 MOL     -0.526885
    146 C48        -7.5560   -1.5890   -1.5220 c3        1 MOL     -0.132591
    147 H67        -7.0220    1.1480   -2.9040 hn        1 MOL      0.313618
    148 H68        -8.2140    0.2360   -0.4870 h1        1 MOL     -0.089286
    149 H69        -6.5190   -1.6780   -1.2000 hc        1 MOL      0.038409
    150 H70        -8.2720   -2.2490   -1.0330 hc        1 MOL      0.038409
    151 H71        -7.5490   -1.9300   -2.5610 hc        1 MOL      0.038409
    152 N14       -10.3730    0.6090   -1.8800 n         1 MOL     -0.459322
    153 C49       -10.7920    0.3690   -0.5300 c3        1 MOL      0.055204
    154 C50       -10.2310    1.4810    0.4170 c         1 MOL      0.428730
    155 O20        -9.7650    1.1530    1.4910 o         1 MOL     -0.512547
    156 C51       -12.2690    0.4130   -0.5210 c3        1 MOL      0.027547
    157 C52       -12.8230    0.4250    0.8420 c3        1 MOL     -0.206594
    158 C53       -14.3470    0.1890    0.8580 c         1 MOL      0.667903
    159 O21       -15.1240    1.1990    0.9320 o         1 MOL     -0.648279
    160 O22       -14.7750   -0.9890    0.7590 o         1 MOL     -0.648279
    161 H72       -11.1010    0.9120   -2.5150 hn        1 MOL      0.282430
    162 H73       -10.4130   -0.5880   -0.1720 h1        1 MOL      0.108738
    163 H74       -12.5560   -0.4870   -1.0720 hc        1 MOL      0.016593
    164 H75       -12.7130    1.2870   -0.9910 hc        1 MOL      0.016593
    165 H76       -12.6770    1.4350    1.2260 hc        1 MOL      0.045954
    166 H77       -12.2830   -0.2800    1.4720 hc        1 MOL      0.045954
    167 N15       -10.1840    2.7710   -0.0310 n         1 MOL     -0.237402
    168 C54        -9.5930    3.8980    0.6480 c3        1 MOL     -0.239063
    169 H78       -10.1230    4.8080    0.3690 h1        1 MOL      0.108150
    170 H79        -9.6650    3.7530    1.7260 h1        1 MOL      0.108150
    171 H80        -8.5440    3.9870    0.3620 h1        1 MOL      0.108150
    172 H81       -10.5370    3.0420   -0.9450 hn        1 MOL      0.235108
    173 Ca1         2.9870    0.2100   -0.9340 Ca        1 MOL      1.655709
    174 O23         3.7680    2.0060   -2.9170 oh        1 MOL     -0.820000
    175 H82         4.6460    2.1030   -2.5450 ho        1 MOL      0.401734
    176 H83         3.5340    2.8970   -3.2030 ho        1 MOL      0.401734
    177 O24         0.7040   -1.6960   -1.9280 oh        1 MOL     -0.820000
    178 H84         1.2090   -1.9000   -2.7100 ho        1 MOL      0.401734
    179 H85        -0.2060   -1.6500   -2.2250 ho        1 MOL      0.401734
    180 O25         0.9160    1.6220   -1.9290 oh        1 MOL     -0.820000
    181 H86         1.2350    2.4110   -2.3460 ho        1 MOL      0.401734
    182 H87         0.1820    1.3340   -2.4730 ho        1 MOL      0.401734
@<TRIPOS>BOND
     1    1    2 1   
     2    1    4 1   
     3    1    5 1   
     4    1    6 1   
     5    2    3 2   
     6    2    7 1   
     7    7    8 1   
     8    7   15 1   
     9    8    9 1   
    10    8   11 1   
    11    8   16 1   
    12    9   10 2   
    13    9   19 1   
    14   11   12 1   
    15   11   17 1   
    16   11   18 1   
    17   12   13 1   
    18   12   14 1   
    19   19   20 1   
    20   19   28 1   
    21   20   21 1   
    22   20   23 1   
    23   20   29 1   
    24   21   22 2   
    25   21   41 1   
    26   23   24 1   
    27   23   30 1   
    28   23   31 1   
    29   24   25 1   
    30   24   32 1   
    31   24   33 1   
    32   25   26 1   
    33   25   34 1   
    34   25   35 1   
    35   26   27 1   
    36   26   36 1   
    37   26   37 1   
    38   27   38 1   
    39   27   39 1   
    40   27   40 1   
    41   41   42 1   
    42   41   49 1   
    43   42   43 1   
    44   42   45 1   
    45   42   50 1   
    46   43   44 2   
    47   43   53 1   
    48   45   46 1   
    49   45   51 1   
    50   45   52 1   
    51   46   47 1   
    52   46   48 1   
    53   53   54 1   
    54   53   57 1   
    55   54   55 1   
    56   54   58 1   
    57   54   59 1   
    58   55   56 2   
    59   55   60 1   
    60   60   61 1   
    61   60   68 1   
    62   61   62 1   
    63   61   64 1   
    64   61   69 1   
    65   62   63 2   
    66   62   74 1   
    67   64   65 1   
    68   64   70 1   
    69   64   71 1   
    70   65   66 1   
    71   65   67 2   
    72   66   72 1   
    73   66   73 1   
    74   74   75 1   
    75   74   78 1   
    76   75   76 1   
    77   75   79 1   
    78   75   80 1   
    79   76   77 2   
    80   76   81 1   
    81   81   82 1   
    82   81   93 1   
    83   82   83 1   
    84   82   85 1   
    85   82   94 1   
    86   83   84 2   
    87   83  102 1   
    88   85   86 1   
    89   85   95 1   
    90   85   96 1   
    91   86   87 ar  
    92   86   88 ar  
    93   87   89 ar  
    94   87   97 1   
    95   88   90 ar  
    96   88   98 1   
    97   89   91 ar  
    98   89   99 1   
    99   90   91 ar  
   100   90  100 1   
   101   91   92 1   
   102   92  101 1   
   103  102  103 1   
   104  102  110 1   
   105  103  104 1   
   106  103  106 1   
   107  103  111 1   
   108  104  105 2   
   109  104  121 1   
   110  106  107 1   
   111  106  108 1   
   112  106  112 1   
   113  107  109 1   
   114  107  113 1   
   115  107  114 1   
   116  108  115 1   
   117  108  116 1   
   118  108  117 1   
   119  109  118 1   
   120  109  119 1   
   121  109  120 1   
   122  121  122 1   
   123  121  127 1   
   124  122  123 1   
   125  122  125 1   
   126  122  128 1   
   127  123  124 2   
   128  123  132 1   
   129  125  126 1   
   130  125  129 1   
   131  125  130 1   
   132  126  131 1   
   133  132  133 1   
   134  132  137 1   
   135  133  134 1   
   136  133  136 1   
   137  133  138 1   
   138  134  135 2   
   139  134  142 1   
   140  136  139 1   
   141  136  140 1   
   142  136  141 1   
   143  142  143 1   
   144  142  147 1   
   145  143  144 1   
   146  143  146 1   
   147  143  148 1   
   148  144  145 2   
   149  144  152 1   
   150  146  149 1   
   151  146  150 1   
   152  146  151 1   
   153  152  153 1   
   154  152  161 1   
   155  153  154 1   
   156  153  156 1   
   157  153  162 1   
   158  154  155 2   
   159  154  167 1   
   160  156  157 1   
   161  156  163 1   
   162  156  164 1   
   163  157  158 1   
   164  157  165 1   
   165  157  166 1   
   166  158  159 1   
   167  158  160 1   
   168  167  168 1   
   169  167  172 1   
   170  168  169 1   
   171  168  170 1   
   172  168  171 1   
   173  174  175 1   
   174  174  176 1   
   175  177  178 1   
   176  177  179 1   
   177  180  181 1   
   178  180  182 1   
@<TRIPOS>SUBSTRUCTURE
     1 MOL         1 TEMP              0 ****  ****    0 ROOT
