@<TRIPOS>MOLECULE
MOL
  195   189     1     0     0
SMALL
resp


@<TRIPOS>ATOM
      1 C1         -3.4330   -3.0340    3.2020 c3        1 MOL      0.013512
      2 C2         -2.4860   -3.1570    2.0110 c         1 MOL      0.510784
      3 O1         -1.6690   -2.2170    1.8190 o         1 MOL     -0.516653
      4 H1         -3.0740   -3.6630    4.0180 hc        1 MOL     -0.017991
      5 H2         -3.4690   -1.9970    3.5330 hc        1 MOL     -0.017991
      6 H3         -4.4310   -3.3570    2.9080 hc        1 MOL     -0.017991
      7 N1         -2.5370   -4.1770    1.1540 n         1 MOL     -0.321287
      8 C3         -1.7690   -4.2170   -0.0920 c3        1 MOL     -0.202964
      9 C4         -0.2890   -4.2260    0.0430 c         1 MOL      0.853622
     10 O2          0.4460   -3.6150   -0.7110 o         1 MOL     -0.578987
     11 C5         -2.4240   -3.2410   -1.1030 c3        1 MOL     -0.389363
     12 C6         -3.9680   -3.2430   -1.0610 c         1 MOL      0.646841
     13 O3         -4.6590   -2.3730   -0.3990 o         1 MOL     -0.675473
     14 O4         -4.6030   -4.1380   -1.7050 o         1 MOL     -0.675473
     15 H4         -3.2830   -4.8530    1.2430 hn        1 MOL      0.190663
     16 H5         -2.0620   -5.1960   -0.4740 h1        1 MOL      0.110474
     17 H6         -2.1190   -3.6220   -2.0860 hc        1 MOL      0.166447
     18 H7         -1.9740   -2.2570   -0.9400 hc        1 MOL      0.166447
     19 N2          0.1730   -4.8350    1.1340 n         1 MOL     -0.615958
     20 C7          1.5700   -4.8580    1.4590 c3        1 MOL     -0.123815
     21 C8          2.3440   -5.7790    0.4740 c         1 MOL      0.440733
     22 O5          1.7460   -6.7810    0.0190 o         1 MOL     -0.554808
     23 C9          1.8080   -5.1190    2.9390 c3        1 MOL      0.125146
     24 C10         1.3890   -6.5000    3.4380 c3        1 MOL      0.066753
     25 C11         1.0740   -4.0570    3.8360 c3        1 MOL     -0.230610
     26 C12         2.0050   -6.9220    4.7060 c3        1 MOL     -0.319213
     27 H8         -0.5070   -5.0740    1.8480 hn        1 MOL      0.304247
     28 H9          1.8060   -3.8220    1.2110 h1        1 MOL      0.089386
     29 H10         2.8790   -4.9720    3.0530 hc        1 MOL      0.031022
     30 H11         1.7770   -7.2120    2.7130 hc        1 MOL      0.018329
     31 H12         0.3060   -6.6070    3.4160 hc        1 MOL      0.018329
     32 H13         0.0250   -4.3200    3.9090 hc        1 MOL      0.065120
     33 H14         1.5080   -4.0100    4.8370 hc        1 MOL      0.065120
     34 H15         0.9900   -3.0570    3.4240 hc        1 MOL      0.065120
     35 H16         3.0120   -7.2850    4.4960 hc        1 MOL      0.068941
     36 H17         2.0940   -6.1610    5.4900 hc        1 MOL      0.068941
     37 H18         1.4730   -7.7670    5.1440 hc        1 MOL      0.068941
     38 N3          3.6520   -5.5980    0.1970 n         1 MOL     -0.355826
     39 C13         4.5150   -4.4580    0.5240 c3        1 MOL      0.187469
     40 C14         4.2180   -3.2500   -0.4330 c         1 MOL      0.478297
     41 O6          4.7480   -2.1770   -0.2240 o         1 MOL     -0.480839
     42 C15         5.9850   -4.9030    0.3970 c3        1 MOL     -0.288371
     43 C16         6.3050   -5.8010   -0.7950 c         1 MOL      0.748424
     44 O7          7.4940   -6.2420   -0.8840 o         1 MOL     -0.711579
     45 O8          5.4740   -5.9000   -1.7180 o         1 MOL     -0.711579
     46 H19         4.0620   -6.2840   -0.4170 hn        1 MOL      0.247026
     47 H20         4.4520   -4.0830    1.5410 h1        1 MOL      0.036450
     48 H21         6.0800   -5.4690    1.3330 hc        1 MOL      0.033846
     49 H22         6.5590   -3.9680    0.4530 hc        1 MOL      0.033846
     50 N4          3.3410   -3.3580   -1.4760 n         1 MOL     -0.302939
     51 C17         2.9300   -2.2870   -2.4060 c3        1 MOL     -0.203380
     52 C18         4.0680   -1.8860   -3.3220 c         1 MOL      0.657309
     53 O9          4.4390   -2.6170   -4.2270 o         1 MOL     -0.553509
     54 H23         2.8820   -4.2460   -1.5770 hn        1 MOL      0.318293
     55 H24         2.6410   -1.4650   -1.7660 h1        1 MOL      0.096747
     56 H25         2.0730   -2.5890   -3.0020 h1        1 MOL      0.096747
     57 N5          4.6700   -0.6810   -3.1090 n         1 MOL     -0.491329
     58 C19         5.9990   -0.4100   -3.6050 c3        1 MOL      0.103875
     59 C20         7.0840   -0.2240   -2.5590 c         1 MOL      0.381690
     60 O10         8.2240    0.1800   -2.8130 o         1 MOL     -0.558871
     61 C21         5.8740    0.9510   -4.2860 c3        1 MOL     -0.247807
     62 C22         5.3120    2.1510   -3.5650 c         1 MOL      0.789159
     63 O11         5.2020    2.2610   -2.2690 o         1 MOL     -0.687822
     64 O12         4.8760    3.0470   -4.2830 o         1 MOL     -0.687822
     65 H26         4.3710   -0.0800   -2.3620 hn        1 MOL      0.237217
     66 H27         6.3110   -1.1270   -4.3690 h1        1 MOL      0.110309
     67 H28         5.3490    0.8060   -5.2310 hc        1 MOL      0.038533
     68 H29         6.8810    1.2180   -4.6110 hc        1 MOL      0.038533
     69 N6          6.8640   -0.6620   -1.3300 n         1 MOL     -0.195657
     70 C23         7.6510   -0.4420   -0.1100 c3        1 MOL     -0.233272
     71 C24         7.8400    1.0010    0.4550 c         1 MOL      0.366863
     72 O13         8.4920    1.2230    1.4610 o         1 MOL     -0.545363
     73 H30         5.8890   -0.9200   -1.1920 hn        1 MOL      0.190383
     74 H31         8.6500   -0.8120   -0.3520 h1        1 MOL      0.125579
     75 H32         7.2270   -1.0260    0.7100 h1        1 MOL      0.125579
     76 N7          7.3130    1.9310   -0.3370 n         1 MOL      0.148465
     77 C25         7.2460    3.3160    0.0640 c3        1 MOL      0.080536
     78 C26         6.4470    3.6140    1.4370 c         1 MOL      0.461717
     79 O14         6.9200    4.5050    2.2210 o         1 MOL     -0.533263
     80 C27         8.6470    4.0680    0.0120 c3        1 MOL     -0.048358
     81 C28         9.2690    4.0340   -1.3800 c3        1 MOL     -0.182770
     82 C29         8.4060    4.7150   -2.4770 c         1 MOL      0.557579
     83 N8          8.6240    4.5450   -3.7710 n         1 MOL     -0.729868
     84 O15         7.5840    5.5790   -2.2160 o         1 MOL     -0.501790
     85 H33         6.6830    1.6940   -1.0840 hn        1 MOL      0.011435
     86 H34         6.5270    3.8090   -0.5890 h1        1 MOL      0.039333
     87 H35         9.2900    3.5430    0.7150 hc        1 MOL      0.028143
     88 H36         8.3830    5.0830    0.3200 hc        1 MOL      0.028143
     89 H37         9.3530    2.9970   -1.7030 hc        1 MOL      0.041787
     90 H38        10.2930    4.4080   -1.3960 hc        1 MOL      0.041787
     91 H39         9.3940    3.9600   -4.0500 hn        1 MOL      0.337843
     92 H40         8.1510    5.1210   -4.4440 hn        1 MOL      0.337843
     93 N9          5.3540    2.9060    1.7460 n         1 MOL     -0.335377
     94 C30         4.4990    3.0030    3.0150 c3        1 MOL     -0.197579
     95 C31         3.1170    2.5350    2.9620 c         1 MOL      0.542214
     96 O16         2.4470    2.5310    3.9970 o         1 MOL     -0.542791
     97 C32         5.1330    2.3780    4.2400 c3        1 MOL      0.279281
     98 C33         5.4490    0.8990    4.0000 c3        1 MOL     -0.213651
     99 C34         6.4170    3.0470    4.8560 c3        1 MOL     -0.213651
    100 H41         5.0050    2.1610    1.1430 hn        1 MOL      0.225879
    101 H42         4.4840    4.0750    3.2350 h1        1 MOL      0.139365
    102 H43         4.4740    2.3960    5.1160 hc        1 MOL     -0.011436
    103 H44         6.0430    0.5230    4.8320 hc        1 MOL      0.039442
    104 H45         4.5410    0.3020    3.9580 hc        1 MOL      0.039442
    105 H46         5.9840    0.7890    3.0490 hc        1 MOL      0.039442
    106 H47         7.2260    2.8070    4.1690 hc        1 MOL      0.039442
    107 H48         6.2590    4.1020    5.0620 hc        1 MOL      0.039442
    108 H49         6.6630    2.6100    5.8230 hc        1 MOL      0.039442
    109 N10         2.5850    2.0650    1.8050 n         1 MOL     -0.381100
    110 C35         1.3310    1.2980    1.6630 c3        1 MOL      0.125474
    111 C36         0.5110    1.8470    0.5510 c         1 MOL      0.437120
    112 O17         1.0980    2.3100   -0.4760 o         1 MOL     -0.522127
    113 C37         1.6530   -0.1510    1.3240 c3        1 MOL     -0.220259
    114 C38         2.4130   -0.7690    2.4110 c         1 MOL      0.783204
    115 N11         3.5470   -1.2890    2.0350 n         1 MOL     -0.747197
    116 O18         1.9980   -0.8270    3.5110 o         1 MOL     -0.603111
    117 H50         3.2110    1.9260    1.0170 hn        1 MOL      0.218368
    118 H51         0.7530    1.3240    2.5950 h1        1 MOL      0.075983
    119 H52         2.1910   -0.1760    0.3780 hc        1 MOL      0.085860
    120 H53         0.7110   -0.6830    1.1440 hc        1 MOL      0.085860
    121 H54         3.9000   -1.1090    1.1090 hn        1 MOL      0.314606
    122 H55         4.0930   -1.7040    2.7730 hn        1 MOL      0.314606
    123 N12        -0.8310    1.7960    0.5620 n         1 MOL     -0.357873
    124 C39        -1.7720    2.3550   -0.4540 c3        1 MOL      0.099576
    125 C40        -3.0150    2.9240    0.2020 c         1 MOL      0.547784
    126 O19        -3.4780    2.4190    1.2350 o         1 MOL     -0.605187
    127 C41        -2.1680    1.1500   -1.3770 c3        1 MOL     -0.277444
    128 C42        -3.3140    1.5160   -2.2810 ca        1 MOL      0.142653
    129 C43        -4.3780    0.5670   -2.3690 ca        1 MOL     -0.211950
    130 C44        -3.2390    2.6610   -3.0620 ca        1 MOL     -0.211950
    131 C45        -5.5070    0.8740   -3.1690 ca        1 MOL     -0.229656
    132 C46        -4.4480    3.0100   -3.7270 ca        1 MOL     -0.229656
    133 C47        -5.4800    2.1000   -3.8920 ca        1 MOL      0.238617
    134 O20        -6.6380    2.4850   -4.4500 oh        1 MOL     -0.482531
    135 H56        -1.2740    1.4730    1.4190 hn        1 MOL      0.251664
    136 H57        -1.3320    3.1560   -1.0420 h1        1 MOL      0.071092
    137 H58        -2.3460    0.2280   -0.8280 hc        1 MOL      0.116279
    138 H59        -1.2560    0.9190   -1.9170 hc        1 MOL      0.116279
    139 H60        -4.4740   -0.3570   -1.8160 ha        1 MOL      0.181560
    140 H61        -2.4640    3.4090   -3.0210 ha        1 MOL      0.181560
    141 H62        -6.4090    0.2720   -3.0710 ha        1 MOL      0.158700
    142 H63        -4.5920    3.9650   -4.1930 ha        1 MOL      0.158700
    143 H64        -7.1810    1.7070   -4.3200 ho        1 MOL      0.346669
    144 N13        -3.4940    3.9820   -0.3910 n         1 MOL     -0.578519
    145 C48        -4.4910    4.8260    0.3330 c3        1 MOL      0.262683
    146 C49        -5.8460    5.0490   -0.3960 c         1 MOL      0.529853
    147 O21        -6.0650    6.1310   -1.0070 o         1 MOL     -0.554525
    148 C50        -3.6850    6.0080    0.8370 c3        1 MOL     -0.026622
    149 C51        -4.3200    6.9150    1.9100 c3        1 MOL     -0.301846
    150 C52        -3.9820    8.3810    1.5970 c         1 MOL      0.701799
    151 O22        -2.8280    8.7830    1.6260 o         1 MOL     -0.652044
    152 O23        -4.9140    9.1940    1.2950 o         1 MOL     -0.652044
    153 H65        -3.0800    4.3640   -1.2220 hn        1 MOL      0.287943
    154 H66        -4.7920    4.3680    1.2780 h1        1 MOL      0.076581
    155 H67        -3.4580    6.6830    0.0020 hc        1 MOL      0.042827
    156 H68        -2.7160    5.7190    1.2370 hc        1 MOL      0.042827
    157 H69        -3.9900    6.4840    2.8590 hc        1 MOL      0.056953
    158 H70        -5.4050    6.8460    1.8740 hc        1 MOL      0.056953
    159 N14        -6.7870    4.1460   -0.3240 n         1 MOL     -0.426191
    160 C53        -6.7730    2.8310    0.2850 c3        1 MOL      0.015101
    161 C54        -6.9480    2.9490    1.8400 c         1 MOL      0.398312
    162 O24        -7.5370    3.9130    2.4020 o         1 MOL     -0.509987
    163 C55        -7.9750    1.9570   -0.2930 c3        1 MOL     -0.074859
    164 C56        -8.2560    0.5630    0.3180 c3        1 MOL      0.194264
    165 C57        -9.2220   -0.4310   -0.4670 c         1 MOL      0.420695
    166 O25       -10.3340    0.0200   -0.7350 o         1 MOL     -0.601110
    167 O26        -8.6900   -1.4880   -0.9230 o         1 MOL     -0.601110
    168 H71        -7.6130    4.2870   -0.8900 hn        1 MOL      0.271043
    169 H72        -5.8100    2.3690    0.0880 h1        1 MOL      0.084940
    170 H73        -7.8290    1.7500   -1.3480 hc        1 MOL      0.045509
    171 H74        -8.8730    2.5790   -0.2370 hc        1 MOL      0.045509
    172 H75        -8.5790    0.7080    1.3470 hc        1 MOL     -0.111849
    173 H76        -7.2810    0.0810    0.3970 hc        1 MOL     -0.111849
    174 N15        -6.2910    1.9930    2.5720 n         1 MOL     -0.216015
    175 C58        -6.1590    2.0550    4.0520 c3        1 MOL     -0.016858
    176 H77        -6.6340    1.1810    4.4960 h1        1 MOL      0.043091
    177 H78        -5.1030    2.0700    4.3230 h1        1 MOL      0.043091
    178 H79        -6.6430    2.9590    4.4230 h1        1 MOL      0.043091
    179 H80        -5.9490    1.1760    2.0820 hn        1 MOL      0.264124
    180 Ca1        -7.1380   -3.6400   -0.7500 Ca        1 MOL      1.646076
    181 O27        -6.8460   -2.2070   -2.9470 oh        1 MOL     -0.817760
    182 H81        -7.4320   -1.5380   -2.5940 ho        1 MOL      0.386877
    183 H82        -7.0990   -2.2930   -3.8670 ho        1 MOL      0.386877
    184 O28        -6.9760   -6.1020   -1.9400 oh        1 MOL     -0.817760
    185 H83        -7.3900   -6.9100   -2.2460 ho        1 MOL      0.386877
    186 H84        -6.0730   -6.3490   -1.7450 ho        1 MOL      0.386877
    187 O29        -9.4040   -4.0440   -2.5290 oh        1 MOL     -0.817760
    188 H85       -10.1920   -4.5890   -2.4490 ho        1 MOL      0.386877
    189 H86        -9.6420   -3.3810   -3.1790 ho        1 MOL      0.386877
    190 O30        -6.9480   -2.1020    1.4930 oh        1 MOL     -0.817760
    191 H87        -6.6320   -1.1890    1.4560 ho        1 MOL      0.386877
    192 H88        -6.9270   -2.3190    2.4320 ho        1 MOL      0.386877
    193 O31        -9.1120   -4.4000    0.7750 oh        1 MOL     -0.817760
    194 H89        -9.2250   -3.8450    1.5440 ho        1 MOL      0.386877
    195 H90        -9.6670   -5.1580    0.9400 ho        1 MOL      0.386877
@<TRIPOS>BOND
     1    1    2 1   
     2    1    4 1   
     3    1    5 1   
     4    1    6 1   
     5    2    3 2   
     6    2    7 1   
     7    7    8 1   
     8    7   15 1   
     9    8    9 1   
    10    8   11 1   
    11    8   16 1   
    12    9   10 2   
    13    9   19 1   
    14   11   12 1   
    15   11   17 1   
    16   11   18 1   
    17   12   13 1   
    18   12   14 1   
    19   19   20 1   
    20   19   27 1   
    21   20   21 1   
    22   20   23 1   
    23   20   28 1   
    24   21   22 2   
    25   21   38 1   
    26   23   24 1   
    27   23   25 1   
    28   23   29 1   
    29   24   26 1   
    30   24   30 1   
    31   24   31 1   
    32   25   32 1   
    33   25   33 1   
    34   25   34 1   
    35   26   35 1   
    36   26   36 1   
    37   26   37 1   
    38   38   39 1   
    39   38   46 1   
    40   39   40 1   
    41   39   42 1   
    42   39   47 1   
    43   40   41 2   
    44   40   50 1   
    45   42   43 1   
    46   42   48 1   
    47   42   49 1   
    48   43   44 1   
    49   43   45 1   
    50   50   51 1   
    51   50   54 1   
    52   51   52 1   
    53   51   55 1   
    54   51   56 1   
    55   52   53 2   
    56   52   57 1   
    57   57   58 1   
    58   57   65 1   
    59   58   59 1   
    60   58   61 1   
    61   58   66 1   
    62   59   60 2   
    63   59   69 1   
    64   61   62 1   
    65   61   67 1   
    66   61   68 1   
    67   62   63 1   
    68   62   64 1   
    69   69   70 1   
    70   69   73 1   
    71   70   71 1   
    72   70   74 1   
    73   70   75 1   
    74   71   72 2   
    75   71   76 1   
    76   76   77 1   
    77   76   85 1   
    78   77   78 1   
    79   77   80 1   
    80   77   86 1   
    81   78   79 2   
    82   78   93 1   
    83   80   81 1   
    84   80   87 1   
    85   80   88 1   
    86   81   82 1   
    87   81   89 1   
    88   81   90 1   
    89   82   83 1   
    90   82   84 2   
    91   83   91 1   
    92   83   92 1   
    93   93   94 1   
    94   93  100 1   
    95   94   95 1   
    96   94   97 1   
    97   94  101 1   
    98   95   96 2   
    99   95  109 1   
   100   97   98 1   
   101   97   99 1   
   102   97  102 1   
   103   98  103 1   
   104   98  104 1   
   105   98  105 1   
   106   99  106 1   
   107   99  107 1   
   108   99  108 1   
   109  109  110 1   
   110  109  117 1   
   111  110  111 1   
   112  110  113 1   
   113  110  118 1   
   114  111  112 2   
   115  111  123 1   
   116  113  114 1   
   117  113  119 1   
   118  113  120 1   
   119  114  115 1   
   120  114  116 2   
   121  115  121 1   
   122  115  122 1   
   123  123  124 1   
   124  123  135 1   
   125  124  125 1   
   126  124  127 1   
   127  124  136 1   
   128  125  126 2   
   129  125  144 1   
   130  127  128 1   
   131  127  137 1   
   132  127  138 1   
   133  128  129 ar  
   134  128  130 ar  
   135  129  131 ar  
   136  129  139 1   
   137  130  132 ar  
   138  130  140 1   
   139  131  133 ar  
   140  131  141 1   
   141  132  133 ar  
   142  132  142 1   
   143  133  134 1   
   144  134  143 1   
   145  144  145 1   
   146  144  153 1   
   147  145  146 1   
   148  145  148 1   
   149  145  154 1   
   150  146  147 2   
   151  146  159 1   
   152  148  149 1   
   153  148  155 1   
   154  148  156 1   
   155  149  150 1   
   156  149  157 1   
   157  149  158 1   
   158  150  151 1   
   159  150  152 1   
   160  159  160 1   
   161  159  168 1   
   162  160  161 1   
   163  160  163 1   
   164  160  169 1   
   165  161  162 2   
   166  161  174 1   
   167  163  164 1   
   168  163  170 1   
   169  163  171 1   
   170  164  165 1   
   171  164  172 1   
   172  164  173 1   
   173  165  166 1   
   174  165  167 1   
   175  174  175 1   
   176  174  179 1   
   177  175  176 1   
   178  175  177 1   
   179  175  178 1   
   180  181  182 1   
   181  181  183 1   
   182  184  185 1   
   183  184  186 1   
   184  187  188 1   
   185  187  189 1   
   186  190  191 1   
   187  190  192 1   
   188  193  194 1   
   189  193  195 1   
@<TRIPOS>SUBSTRUCTURE
     1 MOL         1 TEMP              0 ****  ****    0 ROOT
