@<TRIPOS>MOLECULE
MOL
  175   173     1     0     0
SMALL
resp


@<TRIPOS>ATOM
      1 C1         -6.5290    7.9320    2.0450 c3        1 MOL     -0.432886
      2 C2         -7.3060    7.2470    0.9520 c         1 MOL      0.742579
      3 O1         -7.1740    7.5630   -0.2130 o         1 MOL     -0.610236
      4 H1         -6.4670    7.2740    2.9120 hc        1 MOL      0.107760
      5 H2         -5.5240    8.1600    1.6890 hc        1 MOL      0.107760
      6 H3         -7.0340    8.8560    2.3260 hc        1 MOL      0.107760
      7 N1         -8.0410    6.1690    1.2150 n         1 MOL     -0.656666
      8 C3         -8.6760    5.2070    0.2830 c3        1 MOL      0.410007
      9 C4         -7.7430    4.0900   -0.2210 c         1 MOL      0.447050
     10 O2         -8.2110    2.9640   -0.5180 o         1 MOL     -0.510820
     11 C5        -10.0100    4.8080    0.9310 c3        1 MOL     -0.380260
     12 C6        -11.0090    3.9900    0.1080 c         1 MOL      0.754208
     13 O3        -10.9930    4.0790   -1.1350 o         1 MOL     -0.731789
     14 O4        -11.9100    3.3280    0.6680 o         1 MOL     -0.731789
     15 H4         -8.1470    5.9000    2.1830 hn        1 MOL      0.297052
     16 H5         -8.8610    5.7590   -0.6450 h1        1 MOL      0.020963
     17 H6        -10.4870    5.7450    1.2290 hc        1 MOL      0.053183
     18 H7         -9.8750    4.2720    1.8830 hc        1 MOL      0.053183
     19 N2         -6.4590    4.3520   -0.3910 n         1 MOL     -0.565913
     20 C7         -5.4430    3.4760   -0.9900 c3        1 MOL      0.392116
     21 C8         -4.8180    2.5730    0.0860 c         1 MOL      0.498540
     22 O5         -4.4100    3.0390    1.1480 o         1 MOL     -0.566830
     23 C9         -4.4340    4.2890   -1.7820 c3        1 MOL     -0.368030
     24 H8         -6.2400    5.3220   -0.2100 hn        1 MOL      0.290326
     25 H9         -6.0100    2.8040   -1.6340 h1        1 MOL      0.013230
     26 H10        -3.9670    5.0080   -1.1060 hc        1 MOL      0.099510
     27 H11        -3.6480    3.6410   -2.1750 hc        1 MOL      0.099510
     28 H12        -4.8900    4.7600   -2.6570 hc        1 MOL      0.099510
     29 N3         -4.6860    1.2780   -0.1330 n         1 MOL     -0.402577
     30 C10        -5.2980    0.3990   -1.1820 c3        1 MOL     -0.069362
     31 C11        -5.5780   -0.9810   -0.6150 c         1 MOL      0.538272
     32 O6         -4.7600   -1.4700    0.1880 o         1 MOL     -0.522912
     33 C12        -4.3140    0.2240   -2.3700 c3        1 MOL     -0.143256
     34 C13        -2.9360   -0.2820   -2.1130 c         1 MOL      0.690865
     35 O7         -2.1550    0.4590   -1.4870 o         1 MOL     -0.727610
     36 O8         -2.5990   -1.4640   -2.4150 o         1 MOL     -0.727610
     37 H13        -4.0580    0.9260    0.5740 hn        1 MOL      0.279665
     38 H14        -6.2580    0.8620   -1.4380 h1        1 MOL      0.096985
     39 H15        -4.3820    1.1090   -3.0010 hc        1 MOL      0.040449
     40 H16        -4.8190   -0.4860   -3.0210 hc        1 MOL      0.040449
     41 N4         -6.6360   -1.7000   -0.9730 n         1 MOL     -0.412051
     42 C14        -6.8960   -3.1010   -0.5630 c3        1 MOL      0.013524
     43 C15        -6.7240   -4.1870   -1.6810 c         1 MOL      0.520717
     44 O9         -7.7580   -4.5920   -2.2680 o         1 MOL     -0.576515
     45 H17        -7.3620   -1.1220   -1.3560 hn        1 MOL      0.305548
     46 H18        -7.7940   -3.2970    0.0310 h1        1 MOL      0.069007
     47 H19        -6.1650   -3.4160    0.1910 h1        1 MOL      0.069007
     48 N5         -5.5740   -4.7540   -1.8970 n         1 MOL     -0.426826
     49 C16        -4.2490   -4.3590   -1.3130 c3        1 MOL     -0.032866
     50 C17        -4.0120   -5.1480   -0.0020 c         1 MOL      0.476706
     51 O10        -4.0790   -6.4000    0.0120 o         1 MOL     -0.554076
     52 C18        -3.1520   -4.8260   -2.2870 c3        1 MOL      0.157331
     53 C19        -1.7540   -4.4530   -1.9000 c         1 MOL      0.361450
     54 N6         -0.7770   -4.7820   -2.6910 n         1 MOL     -0.574933
     55 O11        -1.6180   -3.8570   -0.8720 o         1 MOL     -0.533993
     56 H20        -5.4640   -5.3300   -2.7180 hn        1 MOL      0.282379
     57 H21        -4.1850   -3.2790   -1.1810 h1        1 MOL      0.111025
     58 H22        -3.2900   -4.3140   -3.2380 hc        1 MOL     -0.012757
     59 H23        -3.2710   -5.8930   -2.4860 hc        1 MOL     -0.012757
     60 H24        -0.9670   -5.1850   -3.5950 hn        1 MOL      0.304458
     61 H25         0.0830   -4.2580   -2.5590 hn        1 MOL      0.304458
     62 N7         -3.7150   -4.4000    1.0330 n         1 MOL     -0.073265
     63 C20        -3.4220   -4.8380    2.3500 c3        1 MOL     -0.355540
     64 C21        -1.9930   -5.2850    2.6010 c         1 MOL      0.713391
     65 O12        -1.8140   -5.9420    3.5760 o         1 MOL     -0.600198
     66 H26        -3.7320   -3.4120    0.8250 hn        1 MOL      0.174019
     67 H27        -4.0020   -5.7180    2.6480 h1        1 MOL      0.110372
     68 H28        -3.5300   -3.9750    3.0140 h1        1 MOL      0.110372
     69 N8         -1.0540   -4.8600    1.7840 n         1 MOL     -0.430457
     70 C22         0.4230   -5.0370    2.1760 c3        1 MOL     -0.108973
     71 C23         1.1490   -3.7480    1.7670 c         1 MOL      0.323780
     72 O13         0.6420   -2.9820    0.9770 o         1 MOL     -0.410271
     73 C24         0.9810   -6.1870    1.2750 c3        1 MOL      0.465313
     74 C25         0.5420   -7.6190    1.7510 c3        1 MOL     -0.576764
     75 O14         0.5720   -6.0740   -0.0910 oh        1 MOL     -0.638588
     76 H29        -1.2650   -4.1980    1.0580 hn        1 MOL      0.365791
     77 H30         0.6310   -5.2250    3.2270 h1        1 MOL      0.079778
     78 H31         2.0680   -6.1550    1.2130 h1        1 MOL     -0.020113
     79 H32         0.9910   -5.3340   -0.5370 ho        1 MOL      0.449983
     80 H33         1.1110   -8.3630    1.1980 hc        1 MOL      0.146449
     81 H34         0.7810   -7.6830    2.8150 hc        1 MOL      0.146449
     82 H35        -0.4910   -7.8680    1.5020 hc        1 MOL      0.146449
     83 N9          2.2150   -3.6010    2.5110 n         1 MOL     -0.242827
     84 C26         3.1560   -2.4120    2.4210 c3        1 MOL      0.106357
     85 C27         4.1870   -2.5830    1.3050 c         1 MOL      0.322585
     86 O15         5.2240   -3.2690    1.4660 o         1 MOL     -0.579355
     87 C28         3.8000   -2.1120    3.7830 c3        1 MOL      0.166220
     88 C29         4.5100   -0.7220    3.8210 c3        1 MOL      0.103996
     89 C30         2.7440   -2.1940    4.8730 c3        1 MOL     -0.365740
     90 C31         5.8310   -0.5870    3.0230 c3        1 MOL     -0.264825
     91 H36         2.5520   -4.4650    2.9100 hn        1 MOL      0.213452
     92 H37         2.5180   -1.5590    2.1920 h1        1 MOL      0.041518
     93 H38         4.6020   -2.8230    3.9730 hc        1 MOL      0.002703
     94 H39         4.6960   -0.5400    4.8840 hc        1 MOL     -0.032793
     95 H40         3.8710    0.1120    3.5280 hc        1 MOL     -0.032793
     96 H41         1.9240   -1.4910    4.7300 hc        1 MOL      0.078673
     97 H42         2.2620   -3.1620    5.0220 hc        1 MOL      0.078673
     98 H43         3.2690   -2.1110    5.8250 hc        1 MOL      0.078673
     99 H44         6.4540    0.1750    3.4960 hc        1 MOL      0.066718
    100 H45         6.3420   -1.5360    3.1760 hc        1 MOL      0.066718
    101 H46         5.6430   -0.3890    1.9700 hc        1 MOL      0.066718
    102 N10         3.8920   -2.0420    0.1160 n         1 MOL      0.011276
    103 C32         4.5690   -2.4800   -1.1780 c3        1 MOL      0.035534
    104 C33         5.6370   -1.4980   -1.6200 c         1 MOL      0.417144
    105 O16         6.3140   -1.7990   -2.6390 o         1 MOL     -0.540640
    106 C34         3.4530   -2.5610   -2.2020 c3        1 MOL     -0.300294
    107 C35         2.3520   -3.4920   -1.7510 c         1 MOL      0.744718
    108 O17         2.5560   -4.6910   -1.4320 o         1 MOL     -0.704533
    109 O18         1.2480   -3.0210   -1.6140 o         1 MOL     -0.704533
    110 H47         3.0820   -1.4390    0.0830 hn        1 MOL      0.018287
    111 H48         4.9430   -3.5110   -1.1430 h1        1 MOL      0.111598
    112 H49         3.9020   -2.9710   -3.1110 hc        1 MOL      0.080060
    113 H50         3.0500   -1.5680   -2.3720 hc        1 MOL      0.080060
    114 N11         5.8110   -0.3720   -0.9470 n         1 MOL     -0.202615
    115 C36         6.6300    0.7460   -1.4030 c3        1 MOL      0.028289
    116 C37         6.1660    2.0590   -0.7670 c         1 MOL      0.356888
    117 O19         5.8960    2.0130    0.4690 o         1 MOL     -0.559724
    118 C38         8.0680    0.4200   -0.9350 c3        1 MOL     -0.199580
    119 C39         9.1730    1.4140   -1.2610 ca        1 MOL      0.157854
    120 C40        10.0810    1.6790   -0.2310 ca        1 MOL     -0.203518
    121 C41         9.2300    1.9610   -2.5490 ca        1 MOL     -0.203518
    122 C42        10.9650    2.7790   -0.4840 ca        1 MOL     -0.071764
    123 C43        10.2560    2.9160   -2.7700 ca        1 MOL     -0.071764
    124 C44        11.0520    3.3110   -1.7470 ca        1 MOL     -0.154394
    125 H51         5.5520   -0.3190    0.0300 hn        1 MOL      0.113722
    126 H52         6.6020    0.8010   -2.4940 h1        1 MOL      0.051532
    127 H53         8.4150   -0.5510   -1.2980 hc        1 MOL      0.107934
    128 H54         7.9930    0.3620    0.1560 hc        1 MOL      0.107934
    129 H55         9.9990    1.2470    0.7600 ha        1 MOL      0.132119
    130 H56         8.6120    1.5750   -3.3570 ha        1 MOL      0.132119
    131 H57        11.5840    3.2220    0.2780 ha        1 MOL      0.094551
    132 H58        10.5390    3.2590   -3.7540 ha        1 MOL      0.094551
    133 H59        11.7730    4.0920   -1.9720 ha        1 MOL      0.098124
    134 N12         6.0240    3.1860   -1.3730 n         1 MOL      0.115471
    135 C45         6.1780    4.5160   -0.7400 c3        1 MOL     -0.022470
    136 C46         5.0420    4.8480    0.2490 c         1 MOL      0.457571
    137 O20         5.1280    5.8390    0.9440 o         1 MOL     -0.540132
    138 C47         6.3140    5.4980   -1.9050 c3        1 MOL     -0.186249
    139 C48         5.8310    4.7110   -3.1360 c3        1 MOL     -0.002000
    140 C49         6.1900    3.2610   -2.7860 c3        1 MOL     -0.268486
    141 H60         7.1190    4.4620   -0.2000 h1        1 MOL      0.080744
    142 H61         5.7750    6.4440   -1.8120 hc        1 MOL      0.086537
    143 H62         7.3760    5.6540   -2.0620 hc        1 MOL      0.086537
    144 H63         4.7620    4.7200   -3.3530 hc        1 MOL      0.037277
    145 H64         6.3330    5.1070   -4.0100 hc        1 MOL      0.037277
    146 H65         5.4840    2.6240   -3.3260 h1        1 MOL      0.109287
    147 H66         7.2400    3.1190   -3.0380 h1        1 MOL      0.109287
    148 N13         3.9500    4.0530    0.2870 n         1 MOL     -0.237128
    149 C50         2.6950    4.2200    1.0300 c3        1 MOL     -0.151794
    150 C51         2.9440    4.4230    2.5560 c         1 MOL      0.564113
    151 O21         2.0620    5.0300    3.1710 o         1 MOL     -0.544819
    152 C52         1.7620    2.9950    0.7190 c3        1 MOL     -0.123235
    153 C53         2.3140    1.6130    1.2540 c3        1 MOL      0.016261
    154 C54         1.3680    0.5460    0.5870 c         1 MOL      0.656834
    155 O22         1.7780   -0.3270   -0.2540 o         1 MOL     -0.685222
    156 O23         0.1700    0.5140    0.9490 o         1 MOL     -0.685222
    157 H67         3.9040    3.2860   -0.3660 hn        1 MOL      0.181611
    158 H68         2.2500    5.1680    0.7300 h1        1 MOL      0.119795
    159 H69         1.6430    2.9390   -0.3650 hc        1 MOL      0.077630
    160 H70         0.8090    3.2030    1.2160 hc        1 MOL      0.077630
    161 H71         2.3240    1.5840    2.3390 hc        1 MOL      0.004914
    162 H72         3.3290    1.4950    0.8790 hc        1 MOL      0.004914
    163 N14         4.1360    4.1180    3.1210 n         1 MOL     -0.234185
    164 C55         4.4630    4.5310    4.4840 c3        1 MOL     -0.139895
    165 H73         4.3770    3.6750    5.1530 h1        1 MOL      0.072141
    166 H74         5.4830    4.9130    4.5130 h1        1 MOL      0.072141
    167 H75         3.7720    5.3110    4.8030 h1        1 MOL      0.072141
    168 H76         4.8760    3.7010    2.5680 hn        1 MOL      0.238744
    169 Ca1        -0.5490   -1.4300   -0.8960 Ca        1 MOL      1.678378
    170 O24         0.4790   -0.5340   -3.0880 oh        1 MOL     -0.836512
    171 H77         1.2240   -0.8590   -3.5940 ho        1 MOL      0.403835
    172 H78        -0.1040   -0.1540   -3.7370 ho        1 MOL      0.403835
    173 O25        -2.2970   -1.6680    1.3010 oh        1 MOL     -0.836512
    174 H79        -1.9430   -1.0420    1.9180 ho        1 MOL      0.403835
    175 H80        -3.1900   -1.3760    1.1350 ho        1 MOL      0.403835
@<TRIPOS>BOND
     1    1    2 1   
     2    1    4 1   
     3    1    5 1   
     4    1    6 1   
     5    2    3 2   
     6    2    7 1   
     7    7    8 1   
     8    7   15 1   
     9    8    9 1   
    10    8   11 1   
    11    8   16 1   
    12    9   10 2   
    13    9   19 1   
    14   11   12 1   
    15   11   17 1   
    16   11   18 1   
    17   12   13 1   
    18   12   14 1   
    19   19   20 1   
    20   19   24 1   
    21   20   21 1   
    22   20   23 1   
    23   20   25 1   
    24   21   22 2   
    25   21   29 1   
    26   23   26 1   
    27   23   27 1   
    28   23   28 1   
    29   29   30 1   
    30   29   37 1   
    31   30   31 1   
    32   30   33 1   
    33   30   38 1   
    34   31   32 2   
    35   31   41 1   
    36   33   34 1   
    37   33   39 1   
    38   33   40 1   
    39   34   35 1   
    40   34   36 1   
    41   41   42 1   
    42   41   45 1   
    43   42   43 1   
    44   42   46 1   
    45   42   47 1   
    46   43   44 2   
    47   43   48 1   
    48   48   49 1   
    49   48   56 1   
    50   49   50 1   
    51   49   52 1   
    52   49   57 1   
    53   50   51 2   
    54   50   62 1   
    55   52   53 1   
    56   52   58 1   
    57   52   59 1   
    58   53   54 1   
    59   53   55 2   
    60   54   60 1   
    61   54   61 1   
    62   62   63 1   
    63   62   66 1   
    64   63   64 1   
    65   63   67 1   
    66   63   68 1   
    67   64   65 2   
    68   64   69 1   
    69   69   70 1   
    70   69   76 1   
    71   70   71 1   
    72   70   73 1   
    73   70   77 1   
    74   71   72 2   
    75   71   83 1   
    76   73   74 1   
    77   73   75 1   
    78   73   78 1   
    79   74   80 1   
    80   74   81 1   
    81   74   82 1   
    82   75   79 1   
    83   83   84 1   
    84   83   91 1   
    85   84   85 1   
    86   84   87 1   
    87   84   92 1   
    88   85   86 2   
    89   85  102 1   
    90   87   88 1   
    91   87   89 1   
    92   87   93 1   
    93   88   90 1   
    94   88   94 1   
    95   88   95 1   
    96   89   96 1   
    97   89   97 1   
    98   89   98 1   
    99   90   99 1   
   100   90  100 1   
   101   90  101 1   
   102  102  103 1   
   103  102  110 1   
   104  103  104 1   
   105  103  106 1   
   106  103  111 1   
   107  104  105 2   
   108  104  114 1   
   109  106  107 1   
   110  106  112 1   
   111  106  113 1   
   112  107  108 1   
   113  107  109 1   
   114  114  115 1   
   115  114  125 1   
   116  115  116 1   
   117  115  118 1   
   118  115  126 1   
   119  116  117 2   
   120  116  134 1   
   121  118  119 1   
   122  118  127 1   
   123  118  128 1   
   124  119  120 ar  
   125  119  121 ar  
   126  120  122 ar  
   127  120  129 1   
   128  121  123 ar  
   129  121  130 1   
   130  122  124 ar  
   131  122  131 1   
   132  123  124 ar  
   133  123  132 1   
   134  124  133 1   
   135  134  135 1   
   136  134  140 1   
   137  135  136 1   
   138  135  138 1   
   139  135  141 1   
   140  136  137 2   
   141  136  148 1   
   142  138  139 1   
   143  138  142 1   
   144  138  143 1   
   145  139  140 1   
   146  139  144 1   
   147  139  145 1   
   148  140  146 1   
   149  140  147 1   
   150  148  149 1   
   151  148  157 1   
   152  149  150 1   
   153  149  152 1   
   154  149  158 1   
   155  150  151 2   
   156  150  163 1   
   157  152  153 1   
   158  152  159 1   
   159  152  160 1   
   160  153  154 1   
   161  153  161 1   
   162  153  162 1   
   163  154  155 1   
   164  154  156 1   
   165  163  164 1   
   166  163  168 1   
   167  164  165 1   
   168  164  166 1   
   169  164  167 1   
   170  170  171 1   
   171  170  172 1   
   172  173  174 1   
   173  173  175 1   
@<TRIPOS>SUBSTRUCTURE
     1 MOL         1 TEMP              0 ****  ****    0 ROOT
