@<TRIPOS>MOLECULE
MOL
  192   187     1     0     0
SMALL
resp


@<TRIPOS>ATOM
      1 C1          9.8490    1.3180    0.9260 c3        1 MOL     -0.567457
      2 C2          8.5580    0.6560    0.3300 c         1 MOL      0.758757
      3 O1          7.5360    0.5500    1.0060 o         1 MOL     -0.652590
      4 H1         10.6690    1.2150    0.2160 hc        1 MOL      0.148238
      5 H2          9.6620    2.3760    1.1130 hc        1 MOL      0.148238
      6 H3         10.1130    0.8230    1.8610 hc        1 MOL      0.148238
      7 N1          8.5950    0.1360   -0.9160 n         1 MOL     -0.643458
      8 C3          7.3770   -0.2780   -1.6490 c3        1 MOL      0.226248
      9 C4          6.9380   -1.7180   -1.3000 c         1 MOL      0.389283
     10 O2          6.8400   -2.5620   -2.1620 o         1 MOL     -0.416135
     11 C5          7.6410   -0.0070   -3.1480 c3        1 MOL     -0.391708
     12 C6          8.8490   -0.6910   -3.8180 c         1 MOL      0.748251
     13 O3          9.5600   -1.5470   -3.2520 o         1 MOL     -0.623578
     14 O4          9.2340   -0.3430   -4.9890 o         1 MOL     -0.623578
     15 H4          9.4400    0.0880   -1.4790 hn        1 MOL      0.331778
     16 H5          6.5850    0.3910   -1.3210 h1        1 MOL      0.057921
     17 H6          7.9220    1.0210   -3.3720 hc        1 MOL      0.114210
     18 H7          6.7290   -0.3120   -3.6540 hc        1 MOL      0.114210
     19 N2          6.6930   -1.9750   -0.0250 n         1 MOL     -0.309353
     20 C7          6.4280   -3.2590    0.5570 c3        1 MOL      0.050860
     21 C8          4.9930   -3.6270    0.3240 c         1 MOL      0.429113
     22 O5          4.6270   -4.7590   -0.1020 o         1 MOL     -0.528468
     23 C9          6.9080   -3.5350    2.0420 c3        1 MOL      0.028846
     24 C10         8.4200   -3.2530    2.2210 c3        1 MOL     -0.011114
     25 C11         9.0570   -3.6730    3.5850 c3        1 MOL     -0.129410
     26 C12        10.4840   -3.1150    3.7220 c3        1 MOL      0.041935
     27 N3         10.9630   -3.2410    5.0780 n4        1 MOL     -0.161769
     28 H8          6.8250   -1.1700    0.5790 hn        1 MOL      0.246492
     29 H9          6.8590   -4.0100   -0.1120 h1        1 MOL      0.078455
     30 H10         6.6700   -4.5530    2.3360 hc        1 MOL     -0.000061
     31 H11         6.3950   -2.8310    2.7070 hc        1 MOL     -0.000061
     32 H12         8.5380   -2.1820    2.0760 hc        1 MOL      0.027975
     33 H13         9.0200   -3.7510    1.4510 hc        1 MOL      0.027975
     34 H14         9.1140   -4.7590    3.5570 hc        1 MOL      0.065791
     35 H15         8.4310   -3.3710    4.4280 hc        1 MOL      0.065791
     36 H16        10.5150   -2.0890    3.3620 hx        1 MOL      0.077262
     37 H17        11.1480   -3.6510    3.0490 hx        1 MOL      0.077262
     38 H18        11.9130   -2.9150    5.1410 hn        1 MOL      0.219750
     39 H19        10.4590   -2.5990    5.6730 hn        1 MOL      0.219750
     40 H20        10.8040   -4.1300    5.5330 hn        1 MOL      0.219750
     41 N4          3.9520   -2.8240    0.6190 n         1 MOL     -0.369415
     42 C13         3.8910   -1.5280    1.1700 c3        1 MOL      0.018680
     43 C14         4.0000   -0.4680    0.0790 c         1 MOL      0.570479
     44 O6          3.9090   -0.7770   -1.1280 o         1 MOL     -0.456009
     45 C15         2.6320   -1.2890    2.0620 c3        1 MOL     -0.351730
     46 C16         1.4160   -1.6160    1.1940 c         1 MOL      0.732529
     47 O7          0.7220   -0.6280    0.7750 o         1 MOL     -0.652114
     48 O8          1.1370   -2.7920    1.0310 o         1 MOL     -0.652114
     49 H21         3.0460   -3.2490    0.4690 hn        1 MOL      0.323040
     50 H22         4.7360   -1.2630    1.7980 h1        1 MOL      0.071814
     51 H23         2.6370   -0.2840    2.4930 hc        1 MOL      0.068202
     52 H24         2.7480   -1.9980    2.8890 hc        1 MOL      0.068202
     53 N5          4.1800    0.8020    0.4990 n         1 MOL     -0.577101
     54 C17         4.2960    1.9810   -0.3020 c3        1 MOL      0.117000
     55 C18         2.9160    2.5700   -0.7180 c         1 MOL      0.410133
     56 O9          1.8050    2.0720   -0.3760 o         1 MOL     -0.502694
     57 H25         4.2830    1.0290    1.4700 hn        1 MOL      0.332052
     58 H26         4.8320    1.7190   -1.2040 h1        1 MOL      0.059561
     59 H27         4.8310    2.7890    0.2060 h1        1 MOL      0.059561
     60 N6          3.0300    3.7130   -1.4590 n         1 MOL     -0.478690
     61 C19         1.9550    4.5000   -1.9550 c3        1 MOL      0.252380
     62 C20         2.2980    6.0040   -2.0380 c         1 MOL      0.476026
     63 O10         3.4550    6.3600   -2.0110 o         1 MOL     -0.520548
     64 C21         1.6310    4.0110   -3.3300 c3        1 MOL     -0.191022
     65 C22         1.1850    2.5500   -3.3650 c         1 MOL      0.669351
     66 O11         1.9290    1.6810   -3.8690 o         1 MOL     -0.652759
     67 O12         0.0550    2.2860   -2.8680 o         1 MOL     -0.652759
     68 H28         3.9470    4.1040   -1.5620 hn        1 MOL      0.279662
     69 H29         1.0830    4.4210   -1.3160 h1        1 MOL     -0.020837
     70 H30         2.5630    4.0510   -3.8950 hc        1 MOL      0.046905
     71 H31         0.8260    4.6090   -3.7620 hc        1 MOL      0.046905
     72 N7          1.3250    6.9370   -2.1880 n         1 MOL     -0.483609
     73 C23        -0.1480    6.8010   -2.4030 c3        1 MOL     -0.114083
     74 C24        -0.8610    6.3780   -1.1650 c         1 MOL      0.632929
     75 O13        -0.6610    6.8800   -0.0790 o         1 MOL     -0.533779
     76 H32         1.6100    7.8900   -2.3150 hn        1 MOL      0.325132
     77 H33        -0.3540    6.3200   -3.3640 h1        1 MOL      0.103774
     78 H34        -0.5830    7.7820   -2.5920 h1        1 MOL      0.103774
     79 N8         -1.9350    5.6080   -1.3660 n         1 MOL     -0.530077
     80 C25        -2.8170    5.0710   -0.3670 c3        1 MOL     -0.019773
     81 C26        -2.1410    3.8710    0.4230 c         1 MOL      0.878698
     82 O14        -1.5570    3.0540   -0.2640 o         1 MOL     -0.694731
     83 C27        -4.1770    4.7010   -1.0120 c3        1 MOL      0.323402
     84 C28        -5.2550    4.3040    0.0030 c3        1 MOL     -0.539732
     85 O15        -4.0350    3.7370   -2.0110 oh        1 MOL     -0.617939
     86 H35        -2.1030    5.2610   -2.3000 hn        1 MOL      0.281410
     87 H36        -3.0400    5.8040    0.4130 h1        1 MOL      0.054177
     88 H37        -4.4430    5.6100   -1.5460 h1        1 MOL      0.031302
     89 H38        -4.8290    3.7810   -2.5380 ho        1 MOL      0.416179
     90 H39        -4.9230    3.4040    0.5280 hc        1 MOL      0.144897
     91 H40        -5.4310    5.1290    0.6880 hc        1 MOL      0.144897
     92 H41        -6.1540    4.1210   -0.5930 hc        1 MOL      0.144897
     93 N9         -2.0560    3.9980    1.7380 n         1 MOL     -0.597972
     94 C29        -1.4620    3.0000    2.7110 c3        1 MOL      0.064920
     95 C30        -2.0100    1.6570    2.5250 c         1 MOL      0.497667
     96 O16        -1.9680    1.0970    1.4620 o         1 MOL     -0.593389
     97 C31         0.1190    2.9550    2.5970 c3        1 MOL      0.298647
     98 C32         0.8650    4.3430    2.4500 c3        1 MOL     -0.012761
     99 C33         0.7520    2.1600    3.7690 c3        1 MOL     -0.421679
    100 C34         0.7830    5.1860    3.7110 c3        1 MOL     -0.426923
    101 H42        -2.5650    4.7060    2.2390 hn        1 MOL      0.294250
    102 H43        -1.6600    3.3540    3.7310 h1        1 MOL      0.020307
    103 H44         0.2460    2.3550    1.6970 hc        1 MOL     -0.082621
    104 H45         0.4970    4.8410    1.5440 hc        1 MOL      0.065608
    105 H46         1.9160    4.0920    2.3150 hc        1 MOL      0.065608
    106 H47         0.4900    1.0980    3.6750 hc        1 MOL      0.102478
    107 H48         1.8420    2.1430    3.7200 hc        1 MOL      0.102478
    108 H49         0.4040    2.4690    4.7470 hc        1 MOL      0.102478
    109 H50         0.9820    6.2230    3.4610 hc        1 MOL      0.106943
    110 H51        -0.1890    5.3120    4.1920 hc        1 MOL      0.106943
    111 H52         1.5700    4.8250    4.3690 hc        1 MOL      0.106943
    112 N10        -2.5120    1.1330    3.5900 n         1 MOL     -0.318714
    113 C35        -2.8150   -0.2980    3.6930 c3        1 MOL     -0.020927
    114 C36        -4.0860   -0.7720    3.0050 c         1 MOL      0.482379
    115 O17        -4.2960   -1.9630    2.8550 o         1 MOL     -0.552559
    116 C37        -2.6690   -0.8000    5.1100 c3        1 MOL      0.458988
    117 C38        -3.8010   -0.3110    5.9710 c3        1 MOL     -0.405931
    118 O18        -1.3900   -0.2640    5.5950 oh        1 MOL     -0.633481
    119 H53        -2.8330    1.7110    4.3510 hn        1 MOL      0.253850
    120 H54        -2.0840   -0.8300    3.0700 h1        1 MOL      0.043020
    121 H55        -2.6790   -1.8880    5.1020 h1        1 MOL      0.004328
    122 H56        -0.7550   -0.9770    5.6760 ho        1 MOL      0.390562
    123 H57        -4.7050   -0.3940    5.3690 hc        1 MOL      0.101553
    124 H58        -3.8580   -0.9710    6.8410 hc        1 MOL      0.101553
    125 H59        -3.5920    0.7230    6.2550 hc        1 MOL      0.101553
    126 N11        -4.9480    0.0950    2.4630 n         1 MOL     -0.129341
    127 C39        -6.2620   -0.1160    1.7840 c3        1 MOL     -0.367065
    128 C40        -6.1710   -0.9170    0.5400 c         1 MOL      0.819659
    129 O19        -5.5460   -0.4750   -0.4080 o         1 MOL     -0.600702
    130 C41        -6.9590    1.2580    1.4450 c3        1 MOL      0.518010
    131 C42        -8.3490    1.2220    0.8830 c3        1 MOL     -0.474779
    132 O20        -7.1190    2.0990    2.5090 oh        1 MOL     -0.609894
    133 H60        -4.7140    1.0590    2.6650 hn        1 MOL      0.090316
    134 H61        -6.8360   -0.5960    2.5700 h1        1 MOL      0.105127
    135 H62        -6.3120    1.8050    0.7640 h1        1 MOL     -0.043556
    136 H63        -6.2970    2.4910    2.8100 ho        1 MOL      0.378306
    137 H64        -9.0150    0.7200    1.5790 hc        1 MOL      0.123589
    138 H65        -8.7600    2.2380    0.8300 hc        1 MOL      0.123589
    139 H66        -8.3410    0.8310   -0.1290 hc        1 MOL      0.123589
    140 N12        -6.7880   -2.1070    0.5160 n         1 MOL     -0.477764
    141 C43        -6.8190   -2.9860   -0.6530 c3        1 MOL      0.081109
    142 C44        -5.4620   -3.1650   -1.4910 c         1 MOL      0.619539
    143 O21        -5.4950   -3.1560   -2.7070 o         1 MOL     -0.509500
    144 C45        -7.9130   -2.5190   -1.6050 c3        1 MOL     -0.599880
    145 C46        -9.2300   -2.6080   -0.8300 c3        1 MOL      0.432813
    146 C47       -10.4160   -2.3090   -1.6730 c3        1 MOL     -0.209009
    147 C48       -11.8110   -2.6010   -1.0010 c3        1 MOL     -0.112734
    148 N13       -12.1670   -1.5600   -0.0010 n4        1 MOL     -0.110203
    149 H67        -7.1940   -2.4400    1.3860 hn        1 MOL      0.283741
    150 H68        -7.1100   -3.9860   -0.3160 h1        1 MOL      0.074619
    151 H69        -7.8920   -3.2450   -2.4270 hc        1 MOL      0.183508
    152 H70        -7.7620   -1.5260   -2.0370 hc        1 MOL      0.183508
    153 H71        -9.1780   -1.9180    0.0090 hc        1 MOL     -0.084149
    154 H72        -9.3360   -3.5750   -0.3370 hc        1 MOL     -0.084149
    155 H73       -10.4030   -3.0390   -2.4840 hc        1 MOL      0.085939
    156 H74       -10.3870   -1.2780   -2.0030 hc        1 MOL      0.085939
    157 H75       -11.7880   -3.5780   -0.5110 hx        1 MOL      0.123179
    158 H76       -12.5380   -2.4920   -1.8160 hx        1 MOL      0.123179
    159 H77       -11.6670   -1.7630    0.8500 hn        1 MOL      0.164078
    160 H78       -12.1200   -0.6270   -0.3820 hn        1 MOL      0.164078
    161 H79       -13.1090   -1.7080    0.3160 hn        1 MOL      0.164078
    162 N14        -4.3380   -3.3830   -0.7930 n         1 MOL     -0.556595
    163 C49        -3.0550   -3.5480   -1.4090 c3        1 MOL      0.206262
    164 C50        -1.8260   -2.9470   -0.5590 c         1 MOL      0.349926
    165 O22        -1.3670   -1.8650   -0.9310 o         1 MOL     -0.592556
    166 C51        -2.7940   -5.0520   -1.7380 c3        1 MOL      0.022777
    167 C52        -3.5150   -5.5450   -2.9510 c3        1 MOL     -0.212622
    168 C53        -3.0270   -6.9690   -3.4530 c         1 MOL      0.641476
    169 O23        -3.4810   -8.0360   -2.9210 o         1 MOL     -0.604533
    170 O24        -2.1070   -6.9790   -4.3300 o         1 MOL     -0.604533
    171 H80        -4.3490   -3.3470    0.2180 hn        1 MOL      0.274570
    172 H81        -3.1070   -2.9680   -2.3310 h1        1 MOL      0.028834
    173 H82        -2.8210   -5.7060   -0.8700 hc        1 MOL      0.037827
    174 H83        -1.7300   -5.1020   -1.9640 hc        1 MOL      0.037827
    175 H84        -3.4730   -4.8170   -3.7620 hc        1 MOL      0.039236
    176 H85        -4.5240   -5.7450   -2.5780 hc        1 MOL      0.039236
    177 N15        -1.4280   -3.4460    0.5900 n         1 MOL     -0.172226
    178 C54        -1.7240   -4.6850    1.3550 c3        1 MOL     -0.066592
    179 H86        -2.7810   -4.7020    1.6240 h1        1 MOL      0.046707
    180 H87        -1.4920   -5.5560    0.7410 h1        1 MOL      0.046707
    181 H88        -1.1190   -4.7070    2.2610 h1        1 MOL      0.046707
    182 H89        -0.7260   -2.8600    1.0280 hn        1 MOL      0.276904
    183 Ca1        -0.7610    0.7200   -0.9500 Ca        1 MOL      1.785387
    184 O25        -1.4720   -0.3760   -3.2940 oh        1 MOL     -0.857774
    185 H90        -2.4110   -0.5410   -3.3300 ho        1 MOL      0.412942
    186 H91        -1.0770   -1.2470   -3.2960 ho        1 MOL      0.412942
    187 O26        -3.3780    1.0050   -1.2100 oh        1 MOL     -0.857774
    188 H92        -3.8470    1.6670   -1.7280 ho        1 MOL      0.412942
    189 H93        -4.0640    0.4000   -0.9270 ho        1 MOL      0.412942
    190 O27         1.2980   -0.3910   -2.3130 oh        1 MOL     -0.857774
    191 H94         2.1970   -0.5350   -2.0310 ho        1 MOL      0.412942
    192 H95         1.3530    0.3610   -2.9020 ho        1 MOL      0.412942
@<TRIPOS>BOND
     1    1    2 1   
     2    1    4 1   
     3    1    5 1   
     4    1    6 1   
     5    2    3 2   
     6    2    7 1   
     7    7    8 1   
     8    7   15 1   
     9    8    9 1   
    10    8   11 1   
    11    8   16 1   
    12    9   10 2   
    13    9   19 1   
    14   11   12 1   
    15   11   17 1   
    16   11   18 1   
    17   12   13 1   
    18   12   14 1   
    19   19   20 1   
    20   19   28 1   
    21   20   21 1   
    22   20   23 1   
    23   20   29 1   
    24   21   22 2   
    25   21   41 1   
    26   23   24 1   
    27   23   30 1   
    28   23   31 1   
    29   24   25 1   
    30   24   32 1   
    31   24   33 1   
    32   25   26 1   
    33   25   34 1   
    34   25   35 1   
    35   26   27 1   
    36   26   36 1   
    37   26   37 1   
    38   27   38 1   
    39   27   39 1   
    40   27   40 1   
    41   41   42 1   
    42   41   49 1   
    43   42   43 1   
    44   42   45 1   
    45   42   50 1   
    46   43   44 2   
    47   43   53 1   
    48   45   46 1   
    49   45   51 1   
    50   45   52 1   
    51   46   47 1   
    52   46   48 1   
    53   53   54 1   
    54   53   57 1   
    55   54   55 1   
    56   54   58 1   
    57   54   59 1   
    58   55   56 2   
    59   55   60 1   
    60   60   61 1   
    61   60   68 1   
    62   61   62 1   
    63   61   64 1   
    64   61   69 1   
    65   62   63 2   
    66   62   72 1   
    67   64   65 1   
    68   64   70 1   
    69   64   71 1   
    70   65   66 1   
    71   65   67 1   
    72   72   73 1   
    73   72   76 1   
    74   73   74 1   
    75   73   77 1   
    76   73   78 1   
    77   74   75 2   
    78   74   79 1   
    79   79   80 1   
    80   79   86 1   
    81   80   81 1   
    82   80   83 1   
    83   80   87 1   
    84   81   82 2   
    85   81   93 1   
    86   83   84 1   
    87   83   85 1   
    88   83   88 1   
    89   84   90 1   
    90   84   91 1   
    91   84   92 1   
    92   85   89 1   
    93   93   94 1   
    94   93  101 1   
    95   94   95 1   
    96   94   97 1   
    97   94  102 1   
    98   95   96 2   
    99   95  112 1   
   100   97   98 1   
   101   97   99 1   
   102   97  103 1   
   103   98  100 1   
   104   98  104 1   
   105   98  105 1   
   106   99  106 1   
   107   99  107 1   
   108   99  108 1   
   109  100  109 1   
   110  100  110 1   
   111  100  111 1   
   112  112  113 1   
   113  112  119 1   
   114  113  114 1   
   115  113  116 1   
   116  113  120 1   
   117  114  115 2   
   118  114  126 1   
   119  116  117 1   
   120  116  118 1   
   121  116  121 1   
   122  117  123 1   
   123  117  124 1   
   124  117  125 1   
   125  118  122 1   
   126  126  127 1   
   127  126  133 1   
   128  127  128 1   
   129  127  130 1   
   130  127  134 1   
   131  128  129 2   
   132  128  140 1   
   133  130  131 1   
   134  130  132 1   
   135  130  135 1   
   136  131  137 1   
   137  131  138 1   
   138  131  139 1   
   139  132  136 1   
   140  140  141 1   
   141  140  149 1   
   142  141  142 1   
   143  141  144 1   
   144  141  150 1   
   145  142  143 2   
   146  142  162 1   
   147  144  145 1   
   148  144  151 1   
   149  144  152 1   
   150  145  146 1   
   151  145  153 1   
   152  145  154 1   
   153  146  147 1   
   154  146  155 1   
   155  146  156 1   
   156  147  148 1   
   157  147  157 1   
   158  147  158 1   
   159  148  159 1   
   160  148  160 1   
   161  148  161 1   
   162  162  163 1   
   163  162  171 1   
   164  163  164 1   
   165  163  166 1   
   166  163  172 1   
   167  164  165 2   
   168  164  177 1   
   169  166  167 1   
   170  166  173 1   
   171  166  174 1   
   172  167  168 1   
   173  167  175 1   
   174  167  176 1   
   175  168  169 1   
   176  168  170 1   
   177  177  178 1   
   178  177  182 1   
   179  178  179 1   
   180  178  180 1   
   181  178  181 1   
   182  184  185 1   
   183  184  186 1   
   184  187  188 1   
   185  187  189 1   
   186  190  191 1   
   187  190  192 1   
@<TRIPOS>SUBSTRUCTURE
     1 MOL         1 TEMP              0 ****  ****    0 ROOT
