@<TRIPOS>MOLECULE
MOL
  178   175     1     0     0
SMALL
resp


@<TRIPOS>ATOM
      1 C1        -12.6590   -6.0100    1.2860 c3        1 MOL     -0.363911
      2 C2        -11.4750   -5.0870    1.4060 c         1 MOL      0.471293
      3 O1        -10.5010   -5.3840    2.1410 o         1 MOL     -0.514620
      4 H1        -13.1430   -6.1060    2.2580 hc        1 MOL      0.093207
      5 H2        -13.3680   -5.6000    0.5660 hc        1 MOL      0.093207
      6 H3        -12.3240   -6.9910    0.9490 hc        1 MOL      0.093207
      7 N1        -11.3430   -4.0150    0.6100 n         1 MOL     -0.170858
      8 C3        -12.3670   -3.4740   -0.2970 c3        1 MOL      0.048114
      9 C4        -13.0340   -2.1600    0.2840 c         1 MOL      0.481394
     10 O2        -13.9600   -1.6190   -0.3020 o         1 MOL     -0.542903
     11 C5        -11.8090   -3.2150   -1.6620 c3        1 MOL     -0.139730
     12 C6        -10.5370   -2.4640   -1.7170 c         1 MOL      0.807575
     13 O3         -9.6330   -2.7080   -2.5070 o         1 MOL     -0.796285
     14 O4        -10.3750   -1.5070   -0.9790 o         1 MOL     -0.796285
     15 H4        -10.4230   -3.6130    0.5560 hn        1 MOL      0.194619
     16 H5        -13.1870   -4.1850   -0.3860 h1        1 MOL      0.051612
     17 H6        -12.6420   -2.7040   -2.1450 hc        1 MOL      0.020925
     18 H7        -11.5820   -4.1740   -2.1410 hc        1 MOL      0.020925
     19 N2        -12.5510   -1.6470    1.4380 n         1 MOL     -0.499673
     20 C7        -12.9680   -0.3540    2.0710 c3        1 MOL      0.452956
     21 C8        -11.7590    0.4390    2.4400 c         1 MOL      0.388636
     22 O5        -11.7860    1.0720    3.4670 o         1 MOL     -0.536635
     23 C9        -14.0290   -0.5950    3.1760 c3        1 MOL     -0.338852
     24 H8        -11.7660   -2.1370    1.8350 hn        1 MOL      0.247452
     25 H9        -13.4850    0.1910    1.2860 h1        1 MOL     -0.014466
     26 H10       -14.9330   -1.0480    2.7720 hc        1 MOL      0.077298
     27 H11       -13.5870   -1.2100    3.9640 hc        1 MOL      0.077298
     28 H12       -14.3330    0.3630    3.5930 hc        1 MOL      0.077298
     29 N3        -10.6710    0.2960    1.6750 n         1 MOL     -0.373670
     30 C10        -9.3710    0.8090    1.9950 c3        1 MOL      0.176399
     31 C11        -8.7720    1.5500    0.8750 c         1 MOL      0.369450
     32 O6         -8.9660    1.3010   -0.3220 o         1 MOL     -0.562978
     33 C12        -8.3470   -0.2790    2.4410 c3        1 MOL     -0.105010
     34 C13        -8.4160   -1.5230    1.6030 c         1 MOL      0.737130
     35 O7         -7.6400   -1.5940    0.6230 o         1 MOL     -0.694290
     36 O8         -9.1360   -2.5220    1.9180 o         1 MOL     -0.694290
     37 H13       -10.7410   -0.3740    0.9180 hn        1 MOL      0.214384
     38 H14        -9.4100    1.4700    2.8600 h1        1 MOL      0.007114
     39 H15        -8.5850   -0.6670    3.4380 hc        1 MOL      0.025957
     40 H16        -7.3620    0.1990    2.5330 hc        1 MOL      0.025957
     41 N4         -7.9010    2.4570    1.2300 n         1 MOL     -0.227623
     42 C14        -7.0670    3.2290    0.3010 c3        1 MOL     -0.294512
     43 C15        -6.1730    2.2870   -0.4980 c         1 MOL      0.752601
     44 O9         -6.1790    1.0660   -0.3170 o         1 MOL     -0.585034
     45 H17        -7.7820    2.7470    2.1970 hn        1 MOL      0.267533
     46 H18        -6.4220    3.9100    0.8610 h1        1 MOL      0.126059
     47 H19        -7.6570    3.7830   -0.4280 h1        1 MOL      0.126059
     48 N5         -5.2820    2.9380   -1.2650 n         1 MOL     -0.550593
     49 C16        -4.0690    2.4290   -2.0130 c3        1 MOL      0.011378
     50 C17        -2.7780    3.3390   -1.8630 c         1 MOL      0.652341
     51 O10        -2.8460    4.5190   -2.0820 o         1 MOL     -0.532081
     52 C18        -4.3970    2.2390   -3.5550 c3        1 MOL     -0.281003
     53 C19        -5.4020    1.0890   -3.8560 c         1 MOL      0.654835
     54 N6         -5.7800    1.0460   -5.1450 n         1 MOL     -0.838289
     55 O11        -5.8180    0.2990   -2.9940 o         1 MOL     -0.548974
     56 H20        -5.5330    3.8910   -1.4450 hn        1 MOL      0.285163
     57 H21        -3.8070    1.4340   -1.6720 h1        1 MOL      0.130544
     58 H22        -3.4870    2.0050   -4.0980 hc        1 MOL      0.106154
     59 H23        -4.7850    3.1360   -4.0340 hc        1 MOL      0.106154
     60 H24        -5.4030    1.6050   -5.8870 hn        1 MOL      0.370120
     61 H25        -6.1760    0.1660   -5.4470 hn        1 MOL      0.370120
     62 N7         -1.6340    2.7650   -1.4330 n         1 MOL     -0.716689
     63 C20        -0.4460    3.5620   -1.0750 c3        1 MOL      0.405215
     64 C21        -0.5020    4.1090    0.3730 c         1 MOL      0.430857
     65 O12        -1.5580    3.9100    1.0370 o         1 MOL     -0.540814
     66 H26        -1.7390    1.8430   -1.0530 hn        1 MOL      0.360847
     67 H27        -0.4330    4.4370   -1.7200 h1        1 MOL      0.000019
     68 H28         0.4980    3.0580   -1.3140 h1        1 MOL      0.000019
     69 N8          0.5220    4.7450    0.9280 n         1 MOL     -0.495438
     70 C22         1.8420    5.2150    0.2480 c3        1 MOL      0.157785
     71 C23         3.1890    4.6310    0.8300 c         1 MOL      0.412140
     72 O13         4.2550    5.2150    0.4650 o         1 MOL     -0.540792
     73 C24         1.8540    6.6860   -0.0530 c3        1 MOL      0.343745
     74 C25         0.7140    7.0970   -0.9960 c3        1 MOL     -0.380807
     75 O14         1.7830    7.4190    1.2010 oh        1 MOL     -0.630872
     76 H29         0.3130    4.9890    1.8840 hn        1 MOL      0.327220
     77 H30         1.8000    4.7980   -0.7590 h1        1 MOL      0.028121
     78 H31         2.7890    6.8960   -0.5860 h1        1 MOL      0.007890
     79 H32         1.9580    8.3300    0.9550 ho        1 MOL      0.384325
     80 H33         0.7400    6.4800   -1.9010 hc        1 MOL      0.093106
     81 H34        -0.2610    6.8740   -0.5720 hc        1 MOL      0.093106
     82 H35         0.8490    8.1380   -1.2930 hc        1 MOL      0.093106
     83 N9          3.1530    3.6160    1.6430 n         1 MOL     -0.317414
     84 C26         4.3570    2.8430    2.0380 c3        1 MOL     -0.014022
     85 C27         4.3150    1.4120    1.6230 c         1 MOL      0.531594
     86 O15         3.4130    0.7080    2.0540 o         1 MOL     -0.552013
     87 C28         4.8990    3.2450    3.4250 c3        1 MOL      0.220005
     88 C29         6.1480    2.4240    3.7710 c3        1 MOL      0.025676
     89 C30         3.7780    3.0060    4.4830 c3        1 MOL     -0.412420
     90 C31         6.8530    2.9440    5.0940 c3        1 MOL     -0.599520
     91 H36         2.2720    3.1580    1.8260 hn        1 MOL      0.254631
     92 H37         5.1680    3.1700    1.3800 h1        1 MOL      0.049815
     93 H38         5.1550    4.3050    3.4040 hc        1 MOL     -0.007587
     94 H39         6.8700    2.5970    2.9750 hc        1 MOL      0.073346
     95 H40         5.8690    1.3800    3.8920 hc        1 MOL      0.073346
     96 H41         2.8710    3.4570    4.0750 hc        1 MOL      0.094285
     97 H42         3.5460    1.9410    4.5590 hc        1 MOL      0.094285
     98 H43         4.0170    3.4000    5.4650 hc        1 MOL      0.094285
     99 H44         7.7690    2.3940    5.3420 hc        1 MOL      0.154591
    100 H45         7.0330    4.0130    5.0830 hc        1 MOL      0.154591
    101 H46         6.1600    2.6460    5.8790 hc        1 MOL      0.154591
    102 N10         5.2740    0.7940    0.9120 n         1 MOL     -0.492521
    103 C32         6.4110    1.3670    0.1500 c3        1 MOL     -0.043240
    104 C33         7.3830    0.2630   -0.2490 c         1 MOL      0.616913
    105 O16         7.0110   -0.9140   -0.4730 o         1 MOL     -0.465574
    106 C34         5.9530    2.1160   -1.1380 c3        1 MOL     -0.018800
    107 C35         4.9680    1.3900   -2.0670 c         1 MOL      0.604494
    108 O17         3.8200    1.1840   -1.6460 o         1 MOL     -0.682915
    109 O18         5.3690    0.8760   -3.0810 o         1 MOL     -0.682915
    110 H47         5.1130   -0.1690    0.6550 hn        1 MOL      0.364637
    111 H48         6.9990    2.0290    0.7850 h1        1 MOL      0.063517
    112 H49         6.8060    2.4480   -1.7360 hc        1 MOL     -0.028490
    113 H50         5.4220    2.9680   -0.7220 hc        1 MOL     -0.028490
    114 N11         8.6750    0.6340   -0.3370 n         1 MOL     -0.737780
    115 C36         9.8250   -0.1100   -0.8810 c3        1 MOL      0.669396
    116 C37        10.7520   -0.7430    0.3190 c         1 MOL      0.103401
    117 O19        10.8530   -0.1460    1.3710 o         1 MOL     -0.435862
    118 C38        10.5910    0.7740   -1.9090 c3        1 MOL     -0.377900
    119 C39        11.7280    0.1220   -2.6480 ca        1 MOL      0.128044
    120 C40        11.5260   -0.6810   -3.7740 ca        1 MOL     -0.134242
    121 C41        13.0780    0.1660   -2.1510 ca        1 MOL     -0.134242
    122 C42        12.6350   -1.2220   -4.4580 ca        1 MOL     -0.165374
    123 C43        14.1710   -0.2810   -2.8280 ca        1 MOL     -0.165374
    124 C44        13.9540   -1.0580   -4.0090 ca        1 MOL     -0.087194
    125 H51         8.7840    1.6130   -0.1400 hn        1 MOL      0.330676
    126 H52         9.3650   -0.9250   -1.4380 h1        1 MOL     -0.025120
    127 H53        10.9640    1.6370   -1.3490 hc        1 MOL      0.101959
    128 H54         9.9980    1.0830   -2.7780 hc        1 MOL      0.101959
    129 H55        10.5040   -0.6610   -4.1360 ha        1 MOL      0.112849
    130 H56        13.2110    0.7470   -1.2520 ha        1 MOL      0.112849
    131 H57        12.4410   -1.8690   -5.3030 ha        1 MOL      0.116501
    132 H58        15.1800   -0.2600   -2.4360 ha        1 MOL      0.116501
    133 H59        14.7280   -1.3360   -4.6970 ha        1 MOL      0.092333
    134 N12        11.2970   -1.9550    0.1500 n         1 MOL      0.054288
    135 C45        10.9380   -2.9170   -0.9240 c3        1 MOL      0.075699
    136 C46         9.5530   -3.5190   -0.7100 c         1 MOL      0.531723
    137 O20         8.8110   -3.6780   -1.6880 o         1 MOL     -0.592386
    138 C47        12.0080   -3.9710   -0.9080 c3        1 MOL     -0.089441
    139 C48        12.7310   -3.9560    0.4820 c3        1 MOL     -0.055490
    140 C49        12.4230   -2.5210    1.0400 c3        1 MOL     -0.163121
    141 H60        10.9180   -2.2730   -1.8060 h1        1 MOL      0.018797
    142 H61        11.5180   -4.8740   -1.2570 hc        1 MOL      0.025978
    143 H62        12.7730   -3.6060   -1.5890 hc        1 MOL      0.025978
    144 H63        12.3480   -4.7630    1.1080 hc        1 MOL      0.039465
    145 H64        13.8040   -4.1430    0.4110 hc        1 MOL      0.039465
    146 H65        12.1870   -2.4800    2.1040 h1        1 MOL      0.093848
    147 H66        13.3370   -1.9360    0.9740 h1        1 MOL      0.093848
    148 N13         9.1570   -3.6060    0.5680 n         1 MOL     -0.468494
    149 C50         7.8030   -3.8190    0.9880 c3        1 MOL      0.412568
    150 C51         7.3540   -5.2920    0.9620 c         1 MOL      0.340492
    151 O21         7.8900   -6.0800    1.7130 o         1 MOL     -0.587549
    152 C52         7.7140   -3.4180    2.4320 c3        1 MOL      0.060089
    153 C53         7.8310   -1.9140    2.6440 c3        1 MOL      0.091716
    154 C54         8.0310   -1.6050    4.0990 c         1 MOL      0.674186
    155 O22         9.0940   -1.0760    4.4770 o         1 MOL     -0.698544
    156 O23         7.2050   -2.0010    4.9730 o         1 MOL     -0.698544
    157 H67         9.9230   -3.4020    1.2030 hn        1 MOL      0.276811
    158 H68         7.0480   -3.2390    0.4660 h1        1 MOL      0.004885
    159 H69         8.5810   -3.7910    2.9750 hc        1 MOL     -0.041066
    160 H70         6.7870   -3.7680    2.8910 hc        1 MOL     -0.041066
    161 H71         6.8860   -1.4890    2.3000 hc        1 MOL     -0.104377
    162 H72         8.6670   -1.4610    2.1200 hc        1 MOL     -0.104377
    163 N14         6.7040   -5.7890   -0.0570 n         1 MOL     -0.286278
    164 C55         6.0680   -5.0890   -1.2550 c3        1 MOL     -0.270568
    165 H73         6.8510   -4.7080   -1.9100 h1        1 MOL      0.117029
    166 H74         5.4480   -5.7980   -1.8040 h1        1 MOL      0.117029
    167 H75         5.4510   -4.2600   -0.9060 h1        1 MOL      0.117029
    168 H76         6.5660   -6.7930   -0.0780 hn        1 MOL      0.256877
    169 Ca1        -8.0260   -0.6930   -1.7190 Ca        1 MOL      1.762974
    170 O24        -8.0730   -1.7120   -4.4570 oh        1 MOL     -0.834032
    171 H77        -8.9530   -1.8920   -4.7850 ho        1 MOL      0.404762
    172 H78        -7.5500   -2.4620   -4.7380 ho        1 MOL      0.404762
    173 O25        -6.1280   -2.5830   -2.0730 oh        1 MOL     -0.834032
    174 H79        -5.1860   -2.6770   -1.9410 ho        1 MOL      0.404762
    175 H80        -6.2960   -2.9480   -2.9360 ho        1 MOL      0.404762
    176 O26        -8.6030    1.4570   -3.2600 oh        1 MOL     -0.834032
    177 H81        -8.8240    2.3340   -2.9460 ho        1 MOL      0.404762
    178 H82        -8.3640    1.5870   -4.1790 ho        1 MOL      0.404762
@<TRIPOS>BOND
     1    1    2 1   
     2    1    4 1   
     3    1    5 1   
     4    1    6 1   
     5    2    3 2   
     6    2    7 1   
     7    7    8 1   
     8    7   15 1   
     9    8    9 1   
    10    8   11 1   
    11    8   16 1   
    12    9   10 2   
    13    9   19 1   
    14   11   12 1   
    15   11   17 1   
    16   11   18 1   
    17   12   13 1   
    18   12   14 1   
    19   19   20 1   
    20   19   24 1   
    21   20   21 1   
    22   20   23 1   
    23   20   25 1   
    24   21   22 2   
    25   21   29 1   
    26   23   26 1   
    27   23   27 1   
    28   23   28 1   
    29   29   30 1   
    30   29   37 1   
    31   30   31 1   
    32   30   33 1   
    33   30   38 1   
    34   31   32 2   
    35   31   41 1   
    36   33   34 1   
    37   33   39 1   
    38   33   40 1   
    39   34   35 1   
    40   34   36 1   
    41   41   42 1   
    42   41   45 1   
    43   42   43 1   
    44   42   46 1   
    45   42   47 1   
    46   43   44 2   
    47   43   48 1   
    48   48   49 1   
    49   48   56 1   
    50   49   50 1   
    51   49   52 1   
    52   49   57 1   
    53   50   51 2   
    54   50   62 1   
    55   52   53 1   
    56   52   58 1   
    57   52   59 1   
    58   53   54 1   
    59   53   55 2   
    60   54   60 1   
    61   54   61 1   
    62   62   63 1   
    63   62   66 1   
    64   63   64 1   
    65   63   67 1   
    66   63   68 1   
    67   64   65 2   
    68   64   69 1   
    69   69   70 1   
    70   69   76 1   
    71   70   71 1   
    72   70   73 1   
    73   70   77 1   
    74   71   72 2   
    75   71   83 1   
    76   73   74 1   
    77   73   75 1   
    78   73   78 1   
    79   74   80 1   
    80   74   81 1   
    81   74   82 1   
    82   75   79 1   
    83   83   84 1   
    84   83   91 1   
    85   84   85 1   
    86   84   87 1   
    87   84   92 1   
    88   85   86 2   
    89   85  102 1   
    90   87   88 1   
    91   87   89 1   
    92   87   93 1   
    93   88   90 1   
    94   88   94 1   
    95   88   95 1   
    96   89   96 1   
    97   89   97 1   
    98   89   98 1   
    99   90   99 1   
   100   90  100 1   
   101   90  101 1   
   102  102  103 1   
   103  102  110 1   
   104  103  104 1   
   105  103  106 1   
   106  103  111 1   
   107  104  105 2   
   108  104  114 1   
   109  106  107 1   
   110  106  112 1   
   111  106  113 1   
   112  107  108 1   
   113  107  109 1   
   114  114  115 1   
   115  114  125 1   
   116  115  116 1   
   117  115  118 1   
   118  115  126 1   
   119  116  117 2   
   120  116  134 1   
   121  118  119 1   
   122  118  127 1   
   123  118  128 1   
   124  119  120 ar  
   125  119  121 ar  
   126  120  122 ar  
   127  120  129 1   
   128  121  123 ar  
   129  121  130 1   
   130  122  124 ar  
   131  122  131 1   
   132  123  124 ar  
   133  123  132 1   
   134  124  133 1   
   135  134  135 1   
   136  134  140 1   
   137  135  136 1   
   138  135  138 1   
   139  135  141 1   
   140  136  137 2   
   141  136  148 1   
   142  138  139 1   
   143  138  142 1   
   144  138  143 1   
   145  139  140 1   
   146  139  144 1   
   147  139  145 1   
   148  140  146 1   
   149  140  147 1   
   150  148  149 1   
   151  148  157 1   
   152  149  150 1   
   153  149  152 1   
   154  149  158 1   
   155  150  151 2   
   156  150  163 1   
   157  152  153 1   
   158  152  159 1   
   159  152  160 1   
   160  153  154 1   
   161  153  161 1   
   162  153  162 1   
   163  154  155 1   
   164  154  156 1   
   165  163  164 1   
   166  163  168 1   
   167  164  165 1   
   168  164  166 1   
   169  164  167 1   
   170  170  171 1   
   171  170  172 1   
   172  173  174 1   
   173  173  175 1   
   174  176  177 1   
   175  176  178 1   
@<TRIPOS>SUBSTRUCTURE
     1 MOL         1 TEMP              0 ****  ****    0 ROOT
