@<TRIPOS>MOLECULE
MOL
  188   182     1     0     0
SMALL
resp


@<TRIPOS>ATOM
      1 C1          6.1030    0.3650    4.0180 c3        1 MOL     -0.475644
      2 C2          6.8410    0.3400    2.6110 c         1 MOL      0.532660
      3 O1          6.1650    0.1380    1.5840 o         1 MOL     -0.435869
      4 H1          5.0330    0.2250    3.8690 hc        1 MOL      0.134395
      5 H2          6.4900   -0.4380    4.6460 hc        1 MOL      0.134395
      6 H3          6.2800    1.3240    4.5040 hc        1 MOL      0.134395
      7 N1          8.1210    0.5810    2.5110 n         1 MOL     -0.574784
      8 C3          8.7070    0.8740    1.2210 c3        1 MOL      0.321716
      9 C4          8.2510   -0.0960    0.0710 c         1 MOL      0.108304
     10 O2          7.9130    0.3010   -1.0670 o         1 MOL     -0.375292
     11 C5          8.5940    2.4000    0.9220 c3        1 MOL     -0.503029
     12 C6          9.3840    2.8820   -0.2790 c         1 MOL      0.763628
     13 O3         10.3440    2.2190   -0.7650 o         1 MOL     -0.668586
     14 O4          9.1640    4.0040   -0.7190 o         1 MOL     -0.668586
     15 H4          8.5920    0.7570    3.3790 hn        1 MOL      0.337150
     16 H5          9.7720    0.7680    1.3750 h1        1 MOL     -0.000827
     17 H6          9.0470    2.9080    1.7680 hc        1 MOL      0.170225
     18 H7          7.5320    2.6320    0.8900 hc        1 MOL      0.170225
     19 N2          8.3140   -1.3920    0.3280 n         1 MOL     -0.296661
     20 C7          7.9240   -2.4880   -0.6590 c3        1 MOL      0.063623
     21 C8          6.5090   -2.9860   -0.4260 c         1 MOL      0.590572
     22 O5          6.2400   -4.1700   -0.5930 o         1 MOL     -0.570808
     23 C9          8.9150   -3.6750   -0.5500 c3        1 MOL      0.132311
     24 C10        10.2440   -3.1350   -0.8190 c3        1 MOL      0.047972
     25 C11        11.3580   -4.1530   -1.0680 c3        1 MOL      0.049541
     26 C12        12.7210   -3.4520   -1.1600 c3        1 MOL     -0.292253
     27 N3         13.1510   -2.8240    0.1490 n4        1 MOL     -0.222104
     28 H8          8.6750   -1.7100    1.2240 hn        1 MOL      0.228029
     29 H9          8.0920   -2.0470   -1.6480 h1        1 MOL      0.084432
     30 H10         8.6180   -4.4140   -1.2950 hc        1 MOL     -0.038695
     31 H11         8.8600   -4.0810    0.4580 hc        1 MOL     -0.038695
     32 H12        10.5500   -2.4970    0.0160 hc        1 MOL     -0.001625
     33 H13        10.2130   -2.5390   -1.7240 hc        1 MOL     -0.001625
     34 H14        11.1700   -4.8400   -1.9050 hc        1 MOL      0.024617
     35 H15        11.3410   -4.8330   -0.2120 hc        1 MOL      0.024617
     36 H16        12.5330   -2.6270   -1.8560 hx        1 MOL      0.189025
     37 H17        13.4590   -4.1310   -1.5740 hx        1 MOL      0.189025
     38 H18        12.5450   -2.0620    0.4070 hn        1 MOL      0.256215
     39 H19        12.9810   -3.5110    0.8590 hn        1 MOL      0.256215
     40 H20        14.1550   -2.6650    0.1280 hn        1 MOL      0.256215
     41 N4          5.5940   -2.0850   -0.0380 n         1 MOL     -0.567102
     42 C13         4.0950   -2.3070    0.0150 c3        1 MOL      0.146992
     43 C14         3.4370   -2.5940   -1.3550 c         1 MOL      0.631809
     44 O6          3.6140   -1.8710   -2.3500 o         1 MOL     -0.509410
     45 C15         3.4770   -1.0020    0.5780 c3        1 MOL     -0.297703
     46 C16         1.9830   -1.2120    0.7220 c         1 MOL      0.659495
     47 O7          1.5380   -2.2940    1.1970 o         1 MOL     -0.728120
     48 O8          1.2080   -0.3520    0.3020 o         1 MOL     -0.728120
     49 H21         5.9150   -1.1870    0.2990 hn        1 MOL      0.314238
     50 H22         3.8740   -3.1720    0.6520 h1        1 MOL      0.022718
     51 H23         3.6560   -0.1430   -0.0530 hc        1 MOL      0.144143
     52 H24         3.9350   -0.8710    1.5610 hc        1 MOL      0.144143
     53 N5          2.6090   -3.6400   -1.4610 n         1 MOL     -0.471796
     54 C17         1.9890   -4.1820   -2.6770 c3        1 MOL     -0.067916
     55 C18         0.9410   -3.2720   -3.3350 c         1 MOL      0.428113
     56 O9          0.4350   -3.5470   -4.4460 o         1 MOL     -0.527914
     57 H25         2.2640   -3.9480   -0.5580 hn        1 MOL      0.285826
     58 H26         1.4100   -5.0420   -2.3630 h1        1 MOL      0.113028
     59 H27         2.6720   -4.5010   -3.4700 h1        1 MOL      0.113028
     60 N6          0.6470   -2.0540   -2.8090 n         1 MOL     -0.220151
     61 C19         0.2300   -0.8950   -3.6310 c3        1 MOL     -0.044003
     62 C20         0.7300    0.5050   -3.2170 c         1 MOL      0.449913
     63 O10         0.2190    1.4530   -3.7660 o         1 MOL     -0.514195
     64 C21        -1.3080   -0.9010   -3.6480 c3        1 MOL     -0.283331
     65 C22        -1.9700   -0.4720   -2.3690 c         1 MOL      0.616924
     66 N7         -3.2250   -0.0340   -2.5520 n         1 MOL     -0.766373
     67 O11        -1.4250   -0.3670   -1.3010 o         1 MOL     -0.518679
     68 H28         0.9540   -1.7780   -1.8820 hn        1 MOL      0.247450
     69 H29         0.5810   -1.1360   -4.6360 h1        1 MOL      0.141109
     70 H30        -1.7090   -1.9100   -3.7830 hc        1 MOL      0.103337
     71 H31        -1.7030   -0.2660   -4.4480 hc        1 MOL      0.103337
     72 H32        -3.5590    0.2080   -3.4780 hn        1 MOL      0.347153
     73 H33        -3.6430    0.2850   -1.6910 hn        1 MOL      0.347153
     74 N8          1.7420    0.5020   -2.3520 n         1 MOL     -0.038035
     75 C23         2.4770    1.7190   -2.0670 c3        1 MOL     -0.285274
     76 C24         1.7740    2.8180   -1.3410 c         1 MOL      0.688532
     77 O12         1.8480    3.9600   -1.7840 o         1 MOL     -0.546438
     78 H34         2.0640   -0.3700   -1.9530 hn        1 MOL     -0.014376
     79 H35         2.9260    2.1510   -2.9620 h1        1 MOL      0.139492
     80 H36         3.3050    1.3850   -1.4420 h1        1 MOL      0.139492
     81 N9          1.0620    2.4250   -0.2750 n         1 MOL     -0.577809
     82 C25         0.2170    3.3040    0.6240 c3        1 MOL      0.430229
     83 C26        -1.1350    2.5920    0.8800 c         1 MOL      0.196686
     84 O13        -1.2580    1.4870    1.4330 o         1 MOL     -0.561837
     85 C27         0.9280    3.5920    1.9590 c3        1 MOL      0.001486
     86 C28         2.2770    4.3410    1.8340 ca        1 MOL     -0.126067
     87 C29         3.4580    3.5600    1.7500 ca        1 MOL     -0.117729
     88 C30         2.3560    5.7390    1.7480 ca        1 MOL     -0.117729
     89 C31         4.6940    4.2200    1.5790 ca        1 MOL     -0.191887
     90 C32         3.5970    6.4210    1.6020 ca        1 MOL     -0.191887
     91 C33         4.7620    5.6590    1.4890 ca        1 MOL      0.329801
     92 O14         5.8880    6.3360    1.1500 oh        1 MOL     -0.520013
     93 H37         1.0700    1.4600    0.0080 hn        1 MOL      0.314547
     94 H38         0.0490    4.2390    0.0910 h1        1 MOL     -0.011455
     95 H39         1.1030    2.6570    2.4970 hc        1 MOL      0.001352
     96 H40         0.2100    4.2480    2.4440 hc        1 MOL      0.001352
     97 H41         3.5220    2.4940    1.9020 ha        1 MOL      0.108681
     98 H42         1.4000    6.2500    1.7500 ha        1 MOL      0.108681
     99 H43         5.6310    3.6910    1.6680 ha        1 MOL      0.104166
    100 H44         3.6340    7.4890    1.5170 ha        1 MOL      0.104166
    101 H45         5.7840    7.2650    0.9260 ho        1 MOL      0.419388
    102 N10        -2.2300    3.3060    0.6460 n         1 MOL     -0.180857
    103 C34        -3.6120    2.9170    0.9620 c3        1 MOL      0.012421
    104 C35        -4.3430    2.5790   -0.3790 c         1 MOL      0.268667
    105 O15        -4.7250    1.3960   -0.5960 o         1 MOL     -0.388791
    106 C36        -4.2720    3.9800    1.9090 c3        1 MOL      0.138805
    107 C37        -3.4290    4.1870    3.1440 c3        1 MOL     -0.160298
    108 C38        -5.7480    3.5140    2.2820 c3        1 MOL     -0.492834
    109 C39        -3.0520    2.8920    3.9080 c3        1 MOL      0.080232
    110 H46        -2.0540    4.1990    0.2120 hn        1 MOL      0.209933
    111 H47        -3.5800    1.9980    1.5520 h1        1 MOL      0.096707
    112 H48        -4.3690    4.9460    1.4150 hc        1 MOL     -0.009193
    113 H49        -3.9210    4.8180    3.8770 hc        1 MOL      0.048391
    114 H50        -2.5320    4.6460    2.7150 hc        1 MOL      0.048391
    115 H51        -6.3830    3.7980    1.4450 hc        1 MOL      0.143092
    116 H52        -5.7220    2.4320    2.3680 hc        1 MOL      0.143092
    117 H53        -6.0100    3.8980    3.2670 hc        1 MOL      0.143092
    118 H54        -3.1160    2.9600    4.9910 hc        1 MOL     -0.007378
    119 H55        -3.6670    2.0540    3.5720 hc        1 MOL     -0.007378
    120 H56        -1.9870    2.7400    3.7730 hc        1 MOL     -0.007378
    121 N11        -4.5300    3.5830   -1.2610 n         1 MOL     -0.185475
    122 C40        -5.0720    3.4790   -2.5600 c3        1 MOL     -0.061621
    123 C41        -6.5160    2.9810   -2.5820 c         1 MOL      0.337305
    124 O16        -6.9740    2.5170   -3.5690 o         1 MOL     -0.464974
    125 C42        -4.9280    4.8380   -3.2440 c3        1 MOL      0.254822
    126 O17        -3.8150    5.5900   -2.9880 oh        1 MOL     -0.609891
    127 H57        -4.1750    4.4770   -0.9360 hn        1 MOL      0.221616
    128 H58        -4.4840    2.6830   -3.0200 h1        1 MOL      0.125611
    129 H59        -5.8350    5.3730   -2.9510 h1        1 MOL      0.000871
    130 H60        -4.9680    4.6260   -4.3190 h1        1 MOL      0.000871
    131 H61        -3.9050    6.4170   -3.4530 ho        1 MOL      0.425604
    132 N12        -7.1630    3.1510   -1.4240 n         1 MOL     -0.071431
    133 C43        -8.5400    2.7250   -1.1620 c3        1 MOL      0.023020
    134 C44        -8.8540    1.1870   -1.2750 c         1 MOL      0.491466
    135 O18        -9.8960    0.6960   -1.6630 o         1 MOL     -0.487903
    136 C45        -9.6070    3.5090   -1.9530 c3        1 MOL     -0.331508
    137 H62        -6.7880    3.7410   -0.6930 hn        1 MOL      0.143580
    138 H63        -8.6480    2.9950   -0.1110 h1        1 MOL      0.046876
    139 H64        -9.5670    4.5800   -1.7670 hc        1 MOL      0.102044
    140 H65        -9.4120    3.4520   -3.0250 hc        1 MOL      0.102044
    141 H66       -10.6020    3.0860   -1.8530 hc        1 MOL      0.102044
    142 N13        -7.8810    0.3680   -0.8980 n         1 MOL     -0.387803
    143 C46        -7.9130   -1.0870   -0.9190 c3        1 MOL      0.414734
    144 C47        -7.0520   -1.8330    0.2310 c         1 MOL      0.083184
    145 O19        -6.2840   -1.1870    0.9790 o         1 MOL     -0.374847
    146 C48        -7.4230   -1.6650   -2.2820 c3        1 MOL     -0.123550
    147 H67        -6.9980    0.6850   -0.5270 hn        1 MOL      0.099221
    148 H68        -8.9540   -1.3590   -0.7660 h1        1 MOL     -0.049383
    149 H69        -7.9000   -1.1730   -3.1340 hc        1 MOL      0.035201
    150 H70        -6.3340   -1.6480   -2.2600 hc        1 MOL      0.035201
    151 H71        -7.7130   -2.7060   -2.3620 hc        1 MOL      0.035201
    152 N14        -7.3460   -3.1660    0.3930 n         1 MOL     -0.125084
    153 C49        -7.0760   -4.0260    1.5850 c3        1 MOL     -0.287209
    154 C50        -7.5180   -3.4180    2.9680 c         1 MOL      0.505938
    155 O20        -6.8170   -3.4750    3.9570 o         1 MOL     -0.513905
    156 C51        -5.5540   -4.5190    1.6410 c3        1 MOL     -0.011932
    157 C52        -5.1000   -5.5380    0.6140 c3        1 MOL      0.048819
    158 C53        -6.0690   -6.7510    0.4650 c         1 MOL      0.716423
    159 O21        -6.5760   -7.1730   -0.6070 o         1 MOL     -0.700518
    160 O22        -6.4640   -7.1900    1.5830 o         1 MOL     -0.700518
    161 H72        -7.9660   -3.6740   -0.2250 hn        1 MOL      0.265739
    162 H73        -7.7100   -4.8790    1.3540 h1        1 MOL      0.133214
    163 H74        -5.3060   -5.0370    2.5750 hc        1 MOL      0.043306
    164 H75        -4.8780   -3.6760    1.4960 hc        1 MOL      0.043306
    165 H76        -4.0890   -5.8490    0.8760 hc        1 MOL     -0.122201
    166 H77        -5.1630   -5.0590   -0.3590 hc        1 MOL     -0.122201
    167 N15        -8.5890   -2.6750    2.9780 n         1 MOL     -0.193597
    168 C54        -9.1040   -1.9400    4.1250 c3        1 MOL     -0.174572
    169 H78        -9.4510   -2.6450    4.8820 h1        1 MOL      0.088153
    170 H79        -8.3120   -1.3190    4.5440 h1        1 MOL      0.088153
    171 H80        -9.9340   -1.3090    3.8090 h1        1 MOL      0.088153
    172 H81        -9.2680   -2.8990    2.2630 hn        1 MOL      0.211590
    173 Ca1        -1.1040   -1.1590    1.3620 Ca        1 MOL      1.714011
    174 O23         0.4530   -0.4820    3.3720 oh        1 MOL     -0.831906
    175 H82         0.4350    0.4260    3.6710 ho        1 MOL      0.421659
    176 H83         1.1870   -0.8780    3.8440 ho        1 MOL      0.421659
    177 O24        -3.5310   -1.4380    0.5110 oh        1 MOL     -0.831906
    178 H84        -4.4250   -1.1660    0.7330 ho        1 MOL      0.421659
    179 H85        -3.6290   -1.9270   -0.3030 ho        1 MOL      0.421659
    180 O25        -1.1470   -3.1940   -0.4040 oh        1 MOL     -0.831906
    181 H86        -1.8690   -3.2830   -1.0360 ho        1 MOL      0.421659
    182 H87        -0.9190   -4.0910   -0.1780 ho        1 MOL      0.421659
    183 O26        -1.2780   -3.4220    2.6360 oh        1 MOL     -0.831906
    184 H88        -0.9550   -4.1740    2.1380 ho        1 MOL      0.421659
    185 H89        -1.2640   -3.7230    3.5510 ho        1 MOL      0.421659
    186 O27        -2.8880   -0.7880    3.4900 oh        1 MOL     -0.831906
    187 H90        -2.4850   -0.6390    4.3480 ho        1 MOL      0.421659
    188 H91        -3.7870   -1.0440    3.6880 ho        1 MOL      0.421659
@<TRIPOS>BOND
     1    1    2 1   
     2    1    4 1   
     3    1    5 1   
     4    1    6 1   
     5    2    3 2   
     6    2    7 1   
     7    7    8 1   
     8    7   15 1   
     9    8    9 1   
    10    8   11 1   
    11    8   16 1   
    12    9   10 2   
    13    9   19 1   
    14   11   12 1   
    15   11   17 1   
    16   11   18 1   
    17   12   13 1   
    18   12   14 1   
    19   19   20 1   
    20   19   28 1   
    21   20   21 1   
    22   20   23 1   
    23   20   29 1   
    24   21   22 2   
    25   21   41 1   
    26   23   24 1   
    27   23   30 1   
    28   23   31 1   
    29   24   25 1   
    30   24   32 1   
    31   24   33 1   
    32   25   26 1   
    33   25   34 1   
    34   25   35 1   
    35   26   27 1   
    36   26   36 1   
    37   26   37 1   
    38   27   38 1   
    39   27   39 1   
    40   27   40 1   
    41   41   42 1   
    42   41   49 1   
    43   42   43 1   
    44   42   45 1   
    45   42   50 1   
    46   43   44 2   
    47   43   53 1   
    48   45   46 1   
    49   45   51 1   
    50   45   52 1   
    51   46   47 1   
    52   46   48 1   
    53   53   54 1   
    54   53   57 1   
    55   54   55 1   
    56   54   58 1   
    57   54   59 1   
    58   55   56 2   
    59   55   60 1   
    60   60   61 1   
    61   60   68 1   
    62   61   62 1   
    63   61   64 1   
    64   61   69 1   
    65   62   63 2   
    66   62   74 1   
    67   64   65 1   
    68   64   70 1   
    69   64   71 1   
    70   65   66 1   
    71   65   67 2   
    72   66   72 1   
    73   66   73 1   
    74   74   75 1   
    75   74   78 1   
    76   75   76 1   
    77   75   79 1   
    78   75   80 1   
    79   76   77 2   
    80   76   81 1   
    81   81   82 1   
    82   81   93 1   
    83   82   83 1   
    84   82   85 1   
    85   82   94 1   
    86   83   84 2   
    87   83  102 1   
    88   85   86 1   
    89   85   95 1   
    90   85   96 1   
    91   86   87 ar  
    92   86   88 ar  
    93   87   89 ar  
    94   87   97 1   
    95   88   90 ar  
    96   88   98 1   
    97   89   91 ar  
    98   89   99 1   
    99   90   91 ar  
   100   90  100 1   
   101   91   92 1   
   102   92  101 1   
   103  102  103 1   
   104  102  110 1   
   105  103  104 1   
   106  103  106 1   
   107  103  111 1   
   108  104  105 2   
   109  104  121 1   
   110  106  107 1   
   111  106  108 1   
   112  106  112 1   
   113  107  109 1   
   114  107  113 1   
   115  107  114 1   
   116  108  115 1   
   117  108  116 1   
   118  108  117 1   
   119  109  118 1   
   120  109  119 1   
   121  109  120 1   
   122  121  122 1   
   123  121  127 1   
   124  122  123 1   
   125  122  125 1   
   126  122  128 1   
   127  123  124 2   
   128  123  132 1   
   129  125  126 1   
   130  125  129 1   
   131  125  130 1   
   132  126  131 1   
   133  132  133 1   
   134  132  137 1   
   135  133  134 1   
   136  133  136 1   
   137  133  138 1   
   138  134  135 2   
   139  134  142 1   
   140  136  139 1   
   141  136  140 1   
   142  136  141 1   
   143  142  143 1   
   144  142  147 1   
   145  143  144 1   
   146  143  146 1   
   147  143  148 1   
   148  144  145 2   
   149  144  152 1   
   150  146  149 1   
   151  146  150 1   
   152  146  151 1   
   153  152  153 1   
   154  152  161 1   
   155  153  154 1   
   156  153  156 1   
   157  153  162 1   
   158  154  155 2   
   159  154  167 1   
   160  156  157 1   
   161  156  163 1   
   162  156  164 1   
   163  157  158 1   
   164  157  165 1   
   165  157  166 1   
   166  158  159 1   
   167  158  160 1   
   168  167  168 1   
   169  167  172 1   
   170  168  169 1   
   171  168  170 1   
   172  168  171 1   
   173  174  175 1   
   174  174  176 1   
   175  177  178 1   
   176  177  179 1   
   177  180  181 1   
   178  180  182 1   
   179  183  184 1   
   180  183  185 1   
   181  186  187 1   
   182  186  188 1   
@<TRIPOS>SUBSTRUCTURE
     1 MOL         1 TEMP              0 ****  ****    0 ROOT
