@<TRIPOS>MOLECULE
MOL
  192   187     1     0     0
SMALL
resp


@<TRIPOS>ATOM
      1 C1          9.5480    0.5360    1.6300 c3        1 MOL     -0.520868
      2 C2          8.2770    0.1750    0.9040 c         1 MOL      0.777996
      3 O1          7.1560    0.2160    1.4640 o         1 MOL     -0.705098
      4 H1         10.3390    0.7240    0.9050 hc        1 MOL      0.132774
      5 H2          9.3850    1.4340    2.2270 hc        1 MOL      0.132774
      6 H3          9.8420   -0.2860    2.2820 hc        1 MOL      0.132774
      7 N1          8.4180   -0.1990   -0.3760 n         1 MOL     -0.591548
      8 C3          7.2690   -0.4650   -1.2910 c3        1 MOL      0.078501
      9 C4          6.8570   -1.9360   -1.1190 c         1 MOL      0.417937
     10 O2          6.7440   -2.7010   -2.0410 o         1 MOL     -0.430630
     11 C5          7.4530   -0.1300   -2.7300 c3        1 MOL     -0.047076
     12 C6          8.7120   -0.7640   -3.3810 c         1 MOL      0.615588
     13 O3          9.5850   -1.3580   -2.6570 o         1 MOL     -0.626130
     14 O4          8.7760   -0.6960   -4.6260 o         1 MOL     -0.626130
     15 H4          9.3510   -0.2470   -0.7530 hn        1 MOL      0.279327
     16 H5          6.3910    0.1250   -1.0270 h1        1 MOL      0.112987
     17 H6          7.3840    0.9450   -2.8880 hc        1 MOL      0.028062
     18 H7          6.5810   -0.5800   -3.2200 hc        1 MOL      0.028062
     19 N2          6.4280   -2.2880    0.0920 n         1 MOL     -0.287374
     20 C7          5.9050   -3.6360    0.4400 c3        1 MOL      0.000775
     21 C8          4.5110   -3.9420   -0.0120 c         1 MOL      0.529770
     22 O5          4.2370   -5.0630   -0.4530 o         1 MOL     -0.553566
     23 C9          6.1660   -3.9060    1.9550 c3        1 MOL      0.121466
     24 C10         7.7090   -3.8120    2.3530 c3        1 MOL     -0.412090
     25 C11         8.0570   -4.4690    3.6710 c3        1 MOL      0.268530
     26 C12         9.5190   -4.1810    3.9810 c3        1 MOL     -0.020430
     27 N3          9.8490   -4.4230    5.3780 n4        1 MOL     -0.203584
     28 H8          6.4430   -1.6270    0.8490 hn        1 MOL      0.213724
     29 H9          6.5110   -4.3500   -0.1260 h1        1 MOL      0.075393
     30 H10         5.7010   -4.8630    2.1830 hc        1 MOL      0.002270
     31 H11         5.5770   -3.2750    2.6210 hc        1 MOL      0.002270
     32 H12         8.0720   -2.7810    2.3760 hc        1 MOL      0.116815
     33 H13         8.2910   -4.3450    1.5990 hc        1 MOL      0.116815
     34 H14         7.8450   -5.5330    3.7420 hc        1 MOL     -0.030452
     35 H15         7.5100   -4.0760    4.5310 hc        1 MOL     -0.030452
     36 H16         9.7580   -3.1400    3.7630 hx        1 MOL      0.077893
     37 H17        10.0690   -4.7600    3.2390 hx        1 MOL      0.077893
     38 H18         9.6460   -5.3740    5.6570 hn        1 MOL      0.239221
     39 H19        10.8040   -4.2290    5.6370 hn        1 MOL      0.239221
     40 H20         9.2760   -3.8820    6.0100 hn        1 MOL      0.239221
     41 N4          3.5250   -3.0530    0.0680 n         1 MOL     -0.369114
     42 C13         3.4820   -1.7470    0.7810 c3        1 MOL      0.044470
     43 C14         3.6670   -0.5440   -0.1700 c         1 MOL      0.072371
     44 O6          3.4340   -0.6260   -1.3510 o         1 MOL     -0.357392
     45 C15         2.3270   -1.5040    1.6980 c3        1 MOL     -0.185109
     46 C16         0.8630   -1.7610    1.1290 c         1 MOL      0.740926
     47 O7          0.5330   -1.3870   -0.0180 o         1 MOL     -0.657242
     48 O8          0.1920   -2.5860    1.8600 o         1 MOL     -0.657242
     49 H21         2.6380   -3.2330   -0.3720 hn        1 MOL      0.313597
     50 H22         4.3190   -1.6380    1.4710 h1        1 MOL      0.074113
     51 H23         2.3840   -0.4790    2.0690 hc        1 MOL      0.027817
     52 H24         2.5150   -2.1970    2.5180 hc        1 MOL      0.027817
     53 N5          4.1640    0.5870    0.4020 n         1 MOL      0.015381
     54 C17         4.2480    1.8780   -0.2860 c3        1 MOL     -0.253083
     55 C18         3.0910    2.3940   -1.0040 c         1 MOL      0.825314
     56 O9          1.9590    1.8150   -1.0780 o         1 MOL     -0.697935
     57 H25         4.2350    0.6790    1.4070 hn        1 MOL      0.216446
     58 H26         5.0680    1.6880   -0.9880 h1        1 MOL      0.068239
     59 H27         4.4800    2.6850    0.4010 h1        1 MOL      0.068239
     60 N6          3.3430    3.5870   -1.5360 n         1 MOL     -0.554502
     61 C19         2.3710    4.4230   -2.3120 c3        1 MOL      0.288206
     62 C20         2.9240    5.8780   -2.3650 c         1 MOL      0.445948
     63 O10         4.1600    6.1160   -2.2310 o         1 MOL     -0.525317
     64 C21         2.2310    3.8780   -3.7250 c3        1 MOL     -0.284357
     65 C22         1.5200    2.5030   -3.8050 c         1 MOL      0.676121
     66 O11         0.4090    2.3480   -3.2750 o         1 MOL     -0.647305
     67 O12         2.0550    1.5540   -4.3310 o         1 MOL     -0.647305
     68 H28         4.2660    3.9660   -1.3600 hn        1 MOL      0.303018
     69 H29         1.3750    4.3960   -1.8690 h1        1 MOL     -0.077425
     70 H30         3.2530    3.8170   -4.1100 hc        1 MOL      0.077167
     71 H31         1.6620    4.5190   -4.4040 hc        1 MOL      0.077167
     72 N7          2.0620    6.8880   -2.4290 n         1 MOL     -0.438979
     73 C23         0.6620    6.7470   -2.5270 c3        1 MOL      0.033399
     74 C24        -0.0920    6.2990   -1.2850 c         1 MOL      0.614709
     75 O13         0.5460    6.3000   -0.2110 o         1 MOL     -0.516709
     76 H32         2.4210    7.8330   -2.4120 hn        1 MOL      0.321952
     77 H33         0.3650    6.0800   -3.3340 h1        1 MOL      0.045035
     78 H34         0.2130    7.6880   -2.8550 h1        1 MOL      0.045035
     79 N8         -1.3450    5.9110   -1.4260 n         1 MOL     -0.654295
     80 C25        -2.0510    5.2600   -0.2710 c3        1 MOL      0.005423
     81 C26        -1.2570    4.1270    0.3610 c         1 MOL      0.643668
     82 O14        -0.7410    3.2290   -0.3050 o         1 MOL     -0.494746
     83 C27        -3.4690    4.8840   -0.7290 c3        1 MOL      0.268026
     84 C28        -4.4280    4.5600    0.4400 c3        1 MOL     -0.307924
     85 O15        -3.5500    3.7110   -1.5180 oh        1 MOL     -0.673927
     86 H35        -1.8040    5.8420   -2.3190 hn        1 MOL      0.363069
     87 H36        -2.1630    5.9500    0.5710 h1        1 MOL      0.084346
     88 H37        -4.0410    5.6220   -1.2900 h1        1 MOL      0.047735
     89 H38        -4.3460    3.7880   -2.0420 ho        1 MOL      0.447699
     90 H39        -5.3560    4.1530    0.0600 hc        1 MOL      0.075486
     91 H40        -4.0410    3.7170    1.0160 hc        1 MOL      0.075486
     92 H41        -4.5960    5.3860    1.1340 hc        1 MOL      0.075486
     93 N9         -1.2680    4.0660    1.7040 n         1 MOL     -0.513139
     94 C29        -0.7350    3.0360    2.5940 c3        1 MOL      0.067012
     95 C30        -1.1860    1.5670    2.2130 c         1 MOL      0.126229
     96 O16        -0.6210    0.9340    1.3130 o         1 MOL     -0.438487
     97 C31         0.8460    3.0140    2.5770 c3        1 MOL      0.194417
     98 C32         1.5790    4.3410    2.9530 c3        1 MOL     -0.126633
     99 C33         1.2650    1.8730    3.5800 c3        1 MOL     -0.479006
    100 C34         1.1410    4.9700    4.2910 c3        1 MOL     -0.233857
    101 H42        -1.7640    4.8150    2.1710 hn        1 MOL      0.292797
    102 H43        -1.0370    3.2820    3.5990 h1        1 MOL      0.087547
    103 H44         1.2400    2.5940    1.6520 hc        1 MOL     -0.011265
    104 H45         1.1980    5.1250    2.3050 hc        1 MOL      0.084514
    105 H46         2.6560    4.3050    2.7700 hc        1 MOL      0.084514
    106 H47         2.3360    2.0270    3.7200 hc        1 MOL      0.131709
    107 H48         0.7680    2.0450    4.5330 hc        1 MOL      0.131709
    108 H49         1.1370    0.8460    3.2180 hc        1 MOL      0.131709
    109 H50         0.0830    5.2260    4.2800 hc        1 MOL      0.058139
    110 H51         1.2840    4.3340    5.1700 hc        1 MOL      0.058139
    111 H52         1.7590    5.8620    4.4000 hc        1 MOL      0.058139
    112 N10        -2.2130    1.0220    2.9300 n         1 MOL     -0.023954
    113 C35        -2.6630   -0.3570    2.9440 c3        1 MOL     -0.085244
    114 C36        -4.2080   -0.5800    2.8150 c         1 MOL      0.369404
    115 O17        -4.7040   -1.6950    2.8750 o         1 MOL     -0.560998
    116 C37        -2.2580   -1.0890    4.2550 c3        1 MOL      0.369732
    117 C38        -2.4110   -0.1410    5.5120 c3        1 MOL     -0.067402
    118 O18        -0.8380   -1.3230    4.2410 oh        1 MOL     -0.627521
    119 H53        -2.5610    1.6400    3.6560 hn        1 MOL      0.168545
    120 H54        -2.1480   -0.8040    2.0910 h1        1 MOL      0.125441
    121 H55        -2.8210   -1.9990    4.4800 h1        1 MOL      0.034522
    122 H56        -0.5550   -1.8220    3.4690 ho        1 MOL      0.347719
    123 H57        -2.4090   -0.7830    6.3950 hc        1 MOL     -0.004831
    124 H58        -1.6390    0.6310    5.6300 hc        1 MOL     -0.004831
    125 H59        -3.3810    0.3320    5.3560 hc        1 MOL     -0.004831
    126 N11        -5.0080    0.4730    2.7100 n         1 MOL     -0.067854
    127 C39        -6.5240    0.4120    2.6490 c3        1 MOL     -0.098913
    128 C40        -6.9020   -0.3400    1.3820 c         1 MOL      0.572603
    129 O19        -7.1400    0.2640    0.2950 o         1 MOL     -0.531006
    130 C41        -7.1430    1.7980    2.8190 c3        1 MOL      0.330217
    131 C42        -7.4120    2.3610    4.2250 c3        1 MOL     -0.098585
    132 O20        -6.2610    2.7670    2.2750 oh        1 MOL     -0.656966
    133 H60        -4.5430    1.3650    2.6730 hn        1 MOL      0.159106
    134 H61        -6.9390   -0.1430    3.4890 h1        1 MOL      0.072087
    135 H62        -8.1090    1.8630    2.3070 h1        1 MOL      0.017935
    136 H63        -6.5640    3.6520    2.5110 ho        1 MOL      0.409883
    137 H64        -7.7600    3.3900    4.3050 hc        1 MOL      0.014838
    138 H65        -8.1680    1.7260    4.6820 hc        1 MOL      0.014838
    139 H66        -6.5000    2.2060    4.8040 hc        1 MOL      0.014838
    140 N12        -6.9800   -1.6840    1.3570 n         1 MOL     -0.689546
    141 C43        -6.8210   -2.5140    0.1450 c3        1 MOL      0.302869
    142 C44        -5.4150   -2.4120   -0.5490 c         1 MOL      0.445040
    143 O21        -4.9080   -1.2760   -0.6190 o         1 MOL     -0.443331
    144 C45        -7.8880   -2.2930   -0.9150 c3        1 MOL     -0.789011
    145 C46        -9.3430   -2.3430   -0.2820 c3        1 MOL      0.408169
    146 C47       -10.3980   -2.2760   -1.3750 c3        1 MOL     -0.084599
    147 C48       -11.8200   -2.4460   -0.8020 c3        1 MOL      0.135910
    148 N13       -12.9310   -2.3360   -1.7710 n4        1 MOL     -0.187179
    149 H67        -6.5320   -2.0030    2.2050 hn        1 MOL      0.364735
    150 H68        -6.8650   -3.5220    0.5610 h1        1 MOL      0.028262
    151 H69        -7.8200   -3.0910   -1.6520 hc        1 MOL      0.228798
    152 H70        -7.7360   -1.3080   -1.3590 hc        1 MOL      0.228798
    153 H71        -9.5450   -1.6510    0.5340 hc        1 MOL     -0.032740
    154 H72        -9.4640   -3.3120    0.2030 hc        1 MOL     -0.032740
    155 H73       -10.2790   -3.0500   -2.1310 hc        1 MOL      0.027498
    156 H74       -10.4150   -1.2810   -1.8180 hc        1 MOL      0.027498
    157 H75       -11.9720   -1.7620    0.0340 hx        1 MOL      0.008883
    158 H76       -11.8040   -3.4580   -0.3870 hx        1 MOL      0.008883
    159 H77       -12.7380   -2.7980   -2.6450 hn        1 MOL      0.204392
    160 H78       -13.7490   -2.6350   -1.2610 hn        1 MOL      0.204392
    161 H79       -12.8860   -1.3600   -2.0210 hn        1 MOL      0.204392
    162 N14        -4.7940   -3.4300   -1.0910 n         1 MOL     -0.382424
    163 C49        -3.5510   -3.3680   -1.8350 c3        1 MOL      0.023204
    164 C50        -2.4020   -2.7360   -0.8920 c         1 MOL      0.371357
    165 O22        -1.9340   -1.6890   -1.2150 o         1 MOL     -0.534715
    166 C51        -3.1260   -4.6770   -2.4640 c3        1 MOL      0.300086
    167 C52        -3.9640   -5.0150   -3.7270 c3        1 MOL     -0.279455
    168 C53        -3.7420   -6.3760   -4.3250 c         1 MOL      0.726857
    169 O23        -3.5900   -7.3810   -3.5790 o         1 MOL     -0.623440
    170 O24        -3.5600   -6.5790   -5.5170 o         1 MOL     -0.623440
    171 H80        -5.1290   -4.3710   -0.9240 hn        1 MOL      0.282420
    172 H81        -3.6560   -2.6180   -2.6200 h1        1 MOL      0.093063
    173 H82        -3.2760   -5.5010   -1.7580 hc        1 MOL     -0.034547
    174 H83        -2.0600   -4.7050   -2.7180 hc        1 MOL     -0.034547
    175 H84        -3.7040   -4.2080   -4.4050 hc        1 MOL      0.010972
    176 H85        -5.0160   -4.9270   -3.4360 hc        1 MOL      0.010972
    177 N15        -1.9660   -3.3450    0.1700 n         1 MOL     -0.265110
    178 C54        -2.3210   -4.6440    0.7930 c3        1 MOL     -0.019103
    179 H86        -3.3710   -4.8650    0.5980 h1        1 MOL      0.027372
    180 H87        -1.7000   -5.4330    0.3690 h1        1 MOL      0.027372
    181 H88        -2.1560   -4.5890    1.8700 h1        1 MOL      0.027372
    182 H89        -1.3280   -2.7990    0.7340 hn        1 MOL      0.289706
    183 Ca1        -0.3850    0.7020   -1.3840 Ca        1 MOL      1.786337
    184 O25        -2.5850    0.7680   -3.3070 oh        1 MOL     -0.862082
    185 H90        -3.4200    0.3820   -3.5770 ho        1 MOL      0.410329
    186 H91        -2.5030    1.5640   -3.8310 ho        1 MOL      0.410329
    187 O26        -2.9120    1.2770   -0.3090 oh        1 MOL     -0.862082
    188 H92        -3.3030    2.0250   -0.7680 ho        1 MOL      0.410329
    189 H93        -3.6490    0.7060   -0.1220 ho        1 MOL      0.410329
    190 O27         0.6910   -0.6110   -3.2640 oh        1 MOL     -0.862082
    191 H94         1.1700   -1.3500   -2.8860 ho        1 MOL      0.410329
    192 H95         1.3480   -0.1250   -3.7680 ho        1 MOL      0.410329
@<TRIPOS>BOND
     1    1    2 1   
     2    1    4 1   
     3    1    5 1   
     4    1    6 1   
     5    2    3 2   
     6    2    7 1   
     7    7    8 1   
     8    7   15 1   
     9    8    9 1   
    10    8   11 1   
    11    8   16 1   
    12    9   10 2   
    13    9   19 1   
    14   11   12 1   
    15   11   17 1   
    16   11   18 1   
    17   12   13 1   
    18   12   14 1   
    19   19   20 1   
    20   19   28 1   
    21   20   21 1   
    22   20   23 1   
    23   20   29 1   
    24   21   22 2   
    25   21   41 1   
    26   23   24 1   
    27   23   30 1   
    28   23   31 1   
    29   24   25 1   
    30   24   32 1   
    31   24   33 1   
    32   25   26 1   
    33   25   34 1   
    34   25   35 1   
    35   26   27 1   
    36   26   36 1   
    37   26   37 1   
    38   27   38 1   
    39   27   39 1   
    40   27   40 1   
    41   41   42 1   
    42   41   49 1   
    43   42   43 1   
    44   42   45 1   
    45   42   50 1   
    46   43   44 2   
    47   43   53 1   
    48   45   46 1   
    49   45   51 1   
    50   45   52 1   
    51   46   47 1   
    52   46   48 1   
    53   53   54 1   
    54   53   57 1   
    55   54   55 1   
    56   54   58 1   
    57   54   59 1   
    58   55   56 2   
    59   55   60 1   
    60   60   61 1   
    61   60   68 1   
    62   61   62 1   
    63   61   64 1   
    64   61   69 1   
    65   62   63 2   
    66   62   72 1   
    67   64   65 1   
    68   64   70 1   
    69   64   71 1   
    70   65   66 1   
    71   65   67 1   
    72   72   73 1   
    73   72   76 1   
    74   73   74 1   
    75   73   77 1   
    76   73   78 1   
    77   74   75 2   
    78   74   79 1   
    79   79   80 1   
    80   79   86 1   
    81   80   81 1   
    82   80   83 1   
    83   80   87 1   
    84   81   82 2   
    85   81   93 1   
    86   83   84 1   
    87   83   85 1   
    88   83   88 1   
    89   84   90 1   
    90   84   91 1   
    91   84   92 1   
    92   85   89 1   
    93   93   94 1   
    94   93  101 1   
    95   94   95 1   
    96   94   97 1   
    97   94  102 1   
    98   95   96 2   
    99   95  112 1   
   100   97   98 1   
   101   97   99 1   
   102   97  103 1   
   103   98  100 1   
   104   98  104 1   
   105   98  105 1   
   106   99  106 1   
   107   99  107 1   
   108   99  108 1   
   109  100  109 1   
   110  100  110 1   
   111  100  111 1   
   112  112  113 1   
   113  112  119 1   
   114  113  114 1   
   115  113  116 1   
   116  113  120 1   
   117  114  115 2   
   118  114  126 1   
   119  116  117 1   
   120  116  118 1   
   121  116  121 1   
   122  117  123 1   
   123  117  124 1   
   124  117  125 1   
   125  118  122 1   
   126  126  127 1   
   127  126  133 1   
   128  127  128 1   
   129  127  130 1   
   130  127  134 1   
   131  128  129 2   
   132  128  140 1   
   133  130  131 1   
   134  130  132 1   
   135  130  135 1   
   136  131  137 1   
   137  131  138 1   
   138  131  139 1   
   139  132  136 1   
   140  140  141 1   
   141  140  149 1   
   142  141  142 1   
   143  141  144 1   
   144  141  150 1   
   145  142  143 2   
   146  142  162 1   
   147  144  145 1   
   148  144  151 1   
   149  144  152 1   
   150  145  146 1   
   151  145  153 1   
   152  145  154 1   
   153  146  147 1   
   154  146  155 1   
   155  146  156 1   
   156  147  148 1   
   157  147  157 1   
   158  147  158 1   
   159  148  159 1   
   160  148  160 1   
   161  148  161 1   
   162  162  163 1   
   163  162  171 1   
   164  163  164 1   
   165  163  166 1   
   166  163  172 1   
   167  164  165 2   
   168  164  177 1   
   169  166  167 1   
   170  166  173 1   
   171  166  174 1   
   172  167  168 1   
   173  167  175 1   
   174  167  176 1   
   175  168  169 1   
   176  168  170 1   
   177  177  178 1   
   178  177  182 1   
   179  178  179 1   
   180  178  180 1   
   181  178  181 1   
   182  184  185 1   
   183  184  186 1   
   184  187  188 1   
   185  187  189 1   
   186  190  191 1   
   187  190  192 1   
@<TRIPOS>SUBSTRUCTURE
     1 MOL         1 TEMP              0 ****  ****    0 ROOT
