@<TRIPOS>MOLECULE
MOL
  182   178     1     0     0
SMALL
resp


@<TRIPOS>ATOM
      1 C1          0.2250   -4.2940    5.7700 c3        1 MOL     -0.412976
      2 C2          0.5160   -4.0000    4.2630 c         1 MOL      0.843380
      3 O1         -0.2800   -4.3470    3.3980 o         1 MOL     -0.692691
      4 H1         -0.0040   -3.3600    6.2840 hc        1 MOL      0.113913
      5 H2         -0.6250   -4.9710    5.8510 hc        1 MOL      0.113913
      6 H3          1.1020   -4.7540    6.2260 hc        1 MOL      0.113913
      7 N1          1.6170   -3.4210    3.9120 n         1 MOL     -0.624216
      8 C3          1.9540   -3.1710    2.5360 c3        1 MOL     -0.053848
      9 C4          2.2690   -4.4350    1.7070 c         1 MOL      0.625256
     10 O2          3.1960   -5.2070    1.9490 o         1 MOL     -0.533148
     11 C5          3.1510   -2.2190    2.5180 c3        1 MOL     -0.019105
     12 C6          3.2720   -1.4550    1.1610 c         1 MOL      0.516423
     13 O3          3.7950   -0.3860    1.1720 o         1 MOL     -0.658028
     14 O4          2.7440   -1.9590    0.1090 o         1 MOL     -0.658028
     15 H4          2.3110   -3.2780    4.6360 hn        1 MOL      0.337921
     16 H5          1.1180   -2.6950    2.0290 h1        1 MOL      0.012829
     17 H6          4.0550   -2.7750    2.7190 hc        1 MOL      0.034120
     18 H7          2.9460   -1.4760    3.3000 hc        1 MOL      0.034120
     19 N2          1.5390   -4.5710    0.5980 n         1 MOL     -0.357218
     20 C7          1.7460   -5.6450   -0.3760 c3        1 MOL     -0.094491
     21 C8          3.0000   -5.4970   -1.2600 c         1 MOL      0.464179
     22 O5          3.7250   -6.4610   -1.4290 o         1 MOL     -0.538056
     23 C9          0.5230   -6.1080   -1.2270 c3        1 MOL     -0.120489
     24 C10        -0.7580   -6.1080   -0.4360 c3        1 MOL      0.221629
     25 C11        -2.0270   -6.6590   -1.2340 c3        1 MOL     -0.077826
     26 C12        -3.2430   -6.8580   -0.2980 c3        1 MOL      0.111289
     27 N3         -4.4570   -7.0610   -1.1150 n4        1 MOL     -0.315277
     28 H8          1.1760   -3.6960    0.2580 hn        1 MOL      0.315917
     29 H9          1.9130   -6.4990    0.2900 h1        1 MOL      0.122980
     30 H10         0.5480   -7.1070   -1.6720 hc        1 MOL      0.036175
     31 H11         0.4230   -5.4400   -2.0820 hc        1 MOL      0.036175
     32 H12        -1.0090   -5.1120   -0.0650 hc        1 MOL     -0.026989
     33 H13        -0.7080   -6.7970    0.4160 hc        1 MOL     -0.026989
     34 H14        -1.7930   -7.6410   -1.6470 hc        1 MOL      0.020353
     35 H15        -2.2460   -5.9740   -2.0590 hc        1 MOL      0.020353
     36 H16        -3.1950   -5.9930    0.3690 hx        1 MOL      0.056328
     37 H17        -3.1490   -7.8200    0.2080 hx        1 MOL      0.056328
     38 H18        -4.6800   -6.1730   -1.5430 hn        1 MOL      0.303753
     39 H19        -4.2300   -7.7110   -1.8520 hn        1 MOL      0.303753
     40 H20        -5.2080   -7.3560   -0.5050 hn        1 MOL      0.303753
     41 N4          3.4830   -4.3080   -1.4910 n         1 MOL     -0.287810
     42 C13         4.7140   -4.0370   -2.3190 c3        1 MOL      0.038184
     43 C14         5.9430   -3.7450   -1.5260 c         1 MOL      0.410206
     44 O6          7.0330   -4.2190   -1.8620 o         1 MOL     -0.508174
     45 C15         4.4400   -3.0000   -3.4150 c3        1 MOL     -0.180693
     46 C16         3.8660   -1.7030   -2.9430 c         1 MOL      0.625699
     47 O7          4.4820   -1.0590   -2.0660 o         1 MOL     -0.729655
     48 O8          2.6240   -1.4780   -3.1580 o         1 MOL     -0.729655
     49 H21         3.0310   -3.5210   -1.0390 hn        1 MOL      0.281868
     50 H22         4.9280   -4.9880   -2.8100 h1        1 MOL      0.107423
     51 H23         3.7530   -3.4210   -4.1390 hc        1 MOL      0.056215
     52 H24         5.3180   -2.8090   -4.0220 hc        1 MOL      0.056215
     53 N5          5.7470   -3.0650   -0.3440 n         1 MOL      0.011124
     54 C17         6.8030   -2.6930    0.6010 c3        1 MOL     -0.304185
     55 C18         7.2030   -1.1860    0.4750 c         1 MOL      0.694701
     56 O9          8.1680   -0.7940    1.1310 o         1 MOL     -0.602948
     57 H25         4.8150   -2.7310   -0.1560 hn        1 MOL     -0.002182
     58 H26         7.7000   -3.3190    0.4880 h1        1 MOL      0.136883
     59 H27         6.3220   -2.7930    1.5620 h1        1 MOL      0.136883
     60 N6          6.6200   -0.3490   -0.3510 n         1 MOL     -0.370176
     61 C19         7.1460    0.9580   -0.7360 c3        1 MOL      0.044804
     62 C20         6.0440    1.9970   -1.0570 c         1 MOL      0.625315
     63 O10         4.8930    1.7360   -1.3510 o         1 MOL     -0.527665
     64 C21         8.1040    0.7870   -1.9830 c3        1 MOL     -0.331394
     65 C22         9.2710   -0.1790   -1.7320 c         1 MOL      0.642461
     66 N7         10.2260    0.2730   -0.8130 n         1 MOL     -0.872485
     67 O11         9.2800   -1.3240   -2.1880 o         1 MOL     -0.492683
     68 H28         5.9380   -0.7280   -0.9940 hn        1 MOL      0.304367
     69 H29         7.7360    1.4120    0.0640 h1        1 MOL      0.031543
     70 H30         8.4370    1.7760   -2.3030 hc        1 MOL      0.087103
     71 H31         7.4850    0.4300   -2.8060 hc        1 MOL      0.087103
     72 H32        10.0500    1.1210   -0.2960 hn        1 MOL      0.402006
     73 H33        10.9740   -0.3790   -0.6110 hn        1 MOL      0.402006
     74 N8          6.4490    3.2360   -1.1520 n         1 MOL     -0.425161
     75 C23         5.5590    4.3490   -1.3220 c3        1 MOL     -0.197561
     76 C24         4.6190    4.5030   -0.1380 c         1 MOL      0.523473
     77 O12         4.9010    4.0310    1.0330 o         1 MOL     -0.479368
     78 H34         7.4100    3.5230   -0.9920 hn        1 MOL      0.315140
     79 H35         5.0000    4.1480   -2.2310 h1        1 MOL      0.129247
     80 H36         6.1520    5.2300   -1.5590 h1        1 MOL      0.129247
     81 N9          3.3810    4.9810   -0.4100 n         1 MOL     -0.500579
     82 C25         2.2540    4.9210    0.5670 c3        1 MOL     -0.002900
     83 C26         1.7580    3.5010    0.9380 c         1 MOL      0.761895
     84 O13         2.3610    2.5290    0.5270 o         1 MOL     -0.577530
     85 C27         1.0990    5.7230   -0.0600 c3        1 MOL     -0.318283
     86 C28         1.3660    7.2000   -0.1720 ca        1 MOL      0.109013
     87 C29         1.4550    7.9440    1.0500 ca        1 MOL     -0.111998
     88 C30         1.4970    7.8930   -1.4120 ca        1 MOL     -0.111998
     89 C31         1.5090    9.3550    1.0350 ca        1 MOL     -0.334646
     90 C32         1.4900    9.2440   -1.4750 ca        1 MOL     -0.334646
     91 C33         1.4750   10.0490   -0.2670 ca        1 MOL      0.400145
     92 O14         1.3980   11.4070   -0.2770 oh        1 MOL     -0.497051
     93 H37         3.0740    5.0840   -1.3600 hn        1 MOL      0.300650
     94 H38         2.6140    5.5080    1.4080 h1        1 MOL      0.117521
     95 H39         0.2780    5.6130    0.6550 hc        1 MOL      0.095542
     96 H40         0.7800    5.2550   -0.9970 hc        1 MOL      0.095542
     97 H41         1.4920    7.4050    1.9850 ha        1 MOL      0.125469
     98 H42         1.4300    7.3310   -2.3340 ha        1 MOL      0.125469
     99 H43         1.5600    9.9280    1.9520 ha        1 MOL      0.177981
    100 H44         1.4510    9.7540   -2.4280 ha        1 MOL      0.177981
    101 H45         1.3950   11.8630    0.5680 ho        1 MOL      0.385868
    102 N10         0.7220    3.4610    1.8050 n         1 MOL     -0.749885
    103 C34         0.3180    2.2340    2.5060 c3        1 MOL      0.221271
    104 C35        -0.1380    1.1480    1.5830 c         1 MOL      0.480162
    105 O15         0.6750    0.5930    0.9190 o         1 MOL     -0.386971
    106 C36         1.3480    1.6570    3.4490 c3        1 MOL      0.044101
    107 C37         0.9600    0.4870    4.3990 c3        1 MOL     -0.166050
    108 C38         1.8480    2.7860    4.3980 c3        1 MOL     -0.344189
    109 C39        -0.2570    0.7750    5.2210 c3        1 MOL     -0.026123
    110 H46         0.3910    4.3320    2.1840 hn        1 MOL      0.364783
    111 H47        -0.5490    2.5080    3.1210 h1        1 MOL      0.049721
    112 H48         2.2460    1.3390    2.9300 hc        1 MOL      0.111948
    113 H49         1.7980    0.1890    5.0420 hc        1 MOL      0.095584
    114 H50         0.7320   -0.4130    3.8270 hc        1 MOL      0.095584
    115 H51         2.3700    3.4970    3.7650 hc        1 MOL      0.089262
    116 H52         0.9980    3.3160    4.8310 hc        1 MOL      0.089262
    117 H53         2.4110    2.4100    5.2500 hc        1 MOL      0.089262
    118 H54        -0.1470    1.6990    5.7930 hc        1 MOL     -0.001506
    119 H55        -1.1190    0.9320    4.5650 hc        1 MOL     -0.001506
    120 H56        -0.4870   -0.0900    5.8540 hc        1 MOL     -0.001506
    121 N11        -1.3940    0.7430    1.6970 n         1 MOL     -0.518177
    122 C40        -1.8480   -0.5870    1.1860 c3        1 MOL      0.069508
    123 C41        -3.2410   -0.6500    0.5910 c         1 MOL      0.601407
    124 O16        -3.4690   -1.3770   -0.3460 o         1 MOL     -0.525621
    125 C42        -1.6540   -1.6550    2.1930 c3        1 MOL      0.274831
    126 O17        -1.5690   -2.9090    1.5210 oh        1 MOL     -0.605381
    127 H57        -2.1280    1.3220    2.0830 hn        1 MOL      0.262569
    128 H58        -1.1800   -0.7910    0.3480 h1        1 MOL      0.001937
    129 H59        -2.4150   -1.6650    2.9660 h1        1 MOL     -0.021524
    130 H60        -0.7250   -1.3730    2.6850 h1        1 MOL     -0.021524
    131 H61        -1.2920   -3.6310    2.0850 ho        1 MOL      0.409465
    132 N12        -4.1470    0.0850    1.2110 n         1 MOL     -0.553930
    133 C43        -5.5220    0.3790    0.7050 c3        1 MOL      0.065560
    134 C44        -5.5500    0.9630   -0.7900 c         1 MOL      0.662758
    135 O18        -4.6030    1.6230   -1.1840 o         1 MOL     -0.594096
    136 C45        -6.3100    1.2440    1.6810 c3        1 MOL     -0.122665
    137 H62        -3.8030    0.5930    2.0100 hn        1 MOL      0.303943
    138 H63        -6.1030   -0.5330    0.6000 h1        1 MOL      0.082638
    139 H64        -7.2730    1.5680    1.2910 hc        1 MOL      0.050454
    140 H65        -6.5600    0.8220    2.6520 hc        1 MOL      0.050454
    141 H66        -5.8050    2.1620    1.9490 hc        1 MOL      0.050454
    142 N13        -6.5810    0.7420   -1.6090 n         1 MOL     -0.651850
    143 C46        -7.8370    0.0090   -1.4490 c3        1 MOL      0.298013
    144 C47        -8.9090    0.6890   -2.4410 c         1 MOL      0.583252
    145 O19        -8.5200    1.1480   -3.5280 o         1 MOL     -0.573488
    146 C48        -7.5930   -1.4470   -1.6990 c3        1 MOL     -0.256089
    147 H67        -6.3890    0.9550   -2.5800 hn        1 MOL      0.332529
    148 H68        -8.2360    0.1700   -0.4530 h1        1 MOL     -0.026077
    149 H69        -6.7700   -1.9190   -1.1800 hc        1 MOL      0.064503
    150 H70        -8.5630   -1.9180   -1.4970 hc        1 MOL      0.064503
    151 H71        -7.4610   -1.5870   -2.7800 hc        1 MOL      0.064503
    152 N14       -10.1120    0.9570   -1.9440 n         1 MOL     -0.543716
    153 C49       -10.6540    0.5470   -0.6270 c3        1 MOL      0.025983
    154 C50       -10.1050    1.5900    0.4800 c         1 MOL      0.465687
    155 O20       -10.0570    1.1840    1.6390 o         1 MOL     -0.524225
    156 C51       -12.1940    0.7920   -0.5490 c3        1 MOL     -0.136507
    157 C52       -12.9690   -0.1360   -1.4950 c3        1 MOL      0.158737
    158 C53       -12.8120   -1.5770   -1.0330 c         1 MOL      0.645902
    159 O21       -13.7130   -2.0200   -0.3060 o         1 MOL     -0.689862
    160 O22       -11.9100   -2.2020   -1.6520 o         1 MOL     -0.689862
    161 H72       -10.7360    1.3190   -2.6460 hn        1 MOL      0.352318
    162 H73       -10.4950   -0.4980   -0.3760 h1        1 MOL      0.099614
    163 H74       -12.3110    1.7360   -1.1010 hc        1 MOL      0.046715
    164 H75       -12.5210    0.8930    0.4880 hc        1 MOL      0.046715
    165 H76       -12.5150   -0.0310   -2.4800 hc        1 MOL     -0.079144
    166 H77       -14.0040    0.1720   -1.6120 hc        1 MOL     -0.079144
    167 N15        -9.8210    2.7890    0.0660 n         1 MOL     -0.334280
    168 C54        -9.1210    3.7350    0.9740 c3        1 MOL     -0.242970
    169 H78        -9.4260    3.5430    2.0030 h1        1 MOL      0.118591
    170 H79        -8.0440    3.5970    0.8830 h1        1 MOL      0.118591
    171 H80        -9.3810    4.7580    0.7050 h1        1 MOL      0.118591
    172 H81        -9.8230    2.9340   -0.9300 hn        1 MOL      0.272782
    173 Ca1         2.4930    0.4180   -1.1680 Ca        1 MOL      1.770572
    174 O23         0.1780   -0.8560   -1.8410 oh        1 MOL     -0.867694
    175 H82        -0.0580   -1.6190   -2.3810 ho        1 MOL      0.429281
    176 H83        -0.5220   -0.2250   -2.0000 ho        1 MOL      0.429281
    177 O24         3.1500    1.2500   -3.7610 oh        1 MOL     -0.867694
    178 H84         4.0490    0.9880   -3.9310 ho        1 MOL      0.429281
    179 H85         2.6640    1.0020   -4.5540 ho        1 MOL      0.429281
    180 O25         0.5560    2.1450   -2.1340 oh        1 MOL     -0.867694
    181 H86        -0.0770    2.7950   -1.8210 ho        1 MOL      0.429281
    182 H87         0.3190    1.9910   -3.0460 ho        1 MOL      0.429281
@<TRIPOS>BOND
     1    1    2 1   
     2    1    4 1   
     3    1    5 1   
     4    1    6 1   
     5    2    3 2   
     6    2    7 1   
     7    7    8 1   
     8    7   15 1   
     9    8    9 1   
    10    8   11 1   
    11    8   16 1   
    12    9   10 2   
    13    9   19 1   
    14   11   12 1   
    15   11   17 1   
    16   11   18 1   
    17   12   13 1   
    18   12   14 1   
    19   19   20 1   
    20   19   28 1   
    21   20   21 1   
    22   20   23 1   
    23   20   29 1   
    24   21   22 2   
    25   21   41 1   
    26   23   24 1   
    27   23   30 1   
    28   23   31 1   
    29   24   25 1   
    30   24   32 1   
    31   24   33 1   
    32   25   26 1   
    33   25   34 1   
    34   25   35 1   
    35   26   27 1   
    36   26   36 1   
    37   26   37 1   
    38   27   38 1   
    39   27   39 1   
    40   27   40 1   
    41   41   42 1   
    42   41   49 1   
    43   42   43 1   
    44   42   45 1   
    45   42   50 1   
    46   43   44 2   
    47   43   53 1   
    48   45   46 1   
    49   45   51 1   
    50   45   52 1   
    51   46   47 1   
    52   46   48 1   
    53   53   54 1   
    54   53   57 1   
    55   54   55 1   
    56   54   58 1   
    57   54   59 1   
    58   55   56 2   
    59   55   60 1   
    60   60   61 1   
    61   60   68 1   
    62   61   62 1   
    63   61   64 1   
    64   61   69 1   
    65   62   63 2   
    66   62   74 1   
    67   64   65 1   
    68   64   70 1   
    69   64   71 1   
    70   65   66 1   
    71   65   67 2   
    72   66   72 1   
    73   66   73 1   
    74   74   75 1   
    75   74   78 1   
    76   75   76 1   
    77   75   79 1   
    78   75   80 1   
    79   76   77 2   
    80   76   81 1   
    81   81   82 1   
    82   81   93 1   
    83   82   83 1   
    84   82   85 1   
    85   82   94 1   
    86   83   84 2   
    87   83  102 1   
    88   85   86 1   
    89   85   95 1   
    90   85   96 1   
    91   86   87 ar  
    92   86   88 ar  
    93   87   89 ar  
    94   87   97 1   
    95   88   90 ar  
    96   88   98 1   
    97   89   91 ar  
    98   89   99 1   
    99   90   91 ar  
   100   90  100 1   
   101   91   92 1   
   102   92  101 1   
   103  102  103 1   
   104  102  110 1   
   105  103  104 1   
   106  103  106 1   
   107  103  111 1   
   108  104  105 2   
   109  104  121 1   
   110  106  107 1   
   111  106  108 1   
   112  106  112 1   
   113  107  109 1   
   114  107  113 1   
   115  107  114 1   
   116  108  115 1   
   117  108  116 1   
   118  108  117 1   
   119  109  118 1   
   120  109  119 1   
   121  109  120 1   
   122  121  122 1   
   123  121  127 1   
   124  122  123 1   
   125  122  125 1   
   126  122  128 1   
   127  123  124 2   
   128  123  132 1   
   129  125  126 1   
   130  125  129 1   
   131  125  130 1   
   132  126  131 1   
   133  132  133 1   
   134  132  137 1   
   135  133  134 1   
   136  133  136 1   
   137  133  138 1   
   138  134  135 2   
   139  134  142 1   
   140  136  139 1   
   141  136  140 1   
   142  136  141 1   
   143  142  143 1   
   144  142  147 1   
   145  143  144 1   
   146  143  146 1   
   147  143  148 1   
   148  144  145 2   
   149  144  152 1   
   150  146  149 1   
   151  146  150 1   
   152  146  151 1   
   153  152  153 1   
   154  152  161 1   
   155  153  154 1   
   156  153  156 1   
   157  153  162 1   
   158  154  155 2   
   159  154  167 1   
   160  156  157 1   
   161  156  163 1   
   162  156  164 1   
   163  157  158 1   
   164  157  165 1   
   165  157  166 1   
   166  158  159 1   
   167  158  160 1   
   168  167  168 1   
   169  167  172 1   
   170  168  169 1   
   171  168  170 1   
   172  168  171 1   
   173  174  175 1   
   174  174  176 1   
   175  177  178 1   
   176  177  179 1   
   177  180  181 1   
   178  180  182 1   
@<TRIPOS>SUBSTRUCTURE
     1 MOL         1 TEMP              0 ****  ****    0 ROOT
