@<TRIPOS>MOLECULE
MOL
  189   185     1     0     0
SMALL
resp


@<TRIPOS>ATOM
      1 C1          2.9630    4.5170   -3.7020 c3        1 MOL     -0.446108
      2 C2          3.9140    3.8790   -2.7440 c         1 MOL      0.690856
      3 O1          3.4660    3.4530   -1.7040 o         1 MOL     -0.558508
      4 H1          2.3280    5.2230   -3.1670 hc        1 MOL      0.117840
      5 H2          3.5230    5.0450   -4.4730 hc        1 MOL      0.117840
      6 H3          2.3430    3.7490   -4.1650 hc        1 MOL      0.117840
      7 N1          5.2180    3.7430   -2.9730 n         1 MOL     -0.489486
      8 C3          6.2690    3.1000   -2.2000 c3        1 MOL      0.125707
      9 C4          5.8340    1.6640   -1.8720 c         1 MOL      0.436070
     10 O2          5.3800    1.2460   -0.7720 o         1 MOL     -0.576658
     11 C5          6.7700    3.8200   -0.9680 c3        1 MOL     -0.148796
     12 C6          5.8210    4.7550   -0.2020 c         1 MOL      0.730212
     13 O3          5.1220    4.2060    0.6550 o         1 MOL     -0.710089
     14 O4          5.8550    5.9980   -0.3720 o         1 MOL     -0.710089
     15 H4          5.4710    3.9960   -3.9140 hn        1 MOL      0.267264
     16 H5          7.0710    3.1530   -2.9280 h1        1 MOL      0.062829
     17 H6          7.6130    4.4480   -1.2760 hc        1 MOL      0.016145
     18 H7          7.1150    3.0700   -0.2600 hc        1 MOL      0.016145
     19 N2          5.7000    0.8360   -2.8690 n         1 MOL     -0.647897
     20 C7          5.4050   -0.6170   -3.0080 c3        1 MOL      0.355172
     21 C8          6.3570   -1.5050   -2.2340 c         1 MOL      0.364127
     22 O5          6.8000   -2.5090   -2.6970 o         1 MOL     -0.555410
     23 C9          3.9550   -0.8980   -2.6510 c3        1 MOL      0.166117
     24 C10         3.4810   -2.3660   -2.8950 c3        1 MOL     -0.298791
     25 C11         2.9890    0.0780   -3.3790 c3        1 MOL     -0.298689
     26 C12         3.3910   -2.7860   -4.3540 c3        1 MOL      0.067048
     27 H8          6.0840    1.1420   -3.7460 hn        1 MOL      0.292050
     28 H9          5.6550   -0.9770   -4.0100 h1        1 MOL     -0.011312
     29 H10         3.9110   -0.7530   -1.5760 hc        1 MOL     -0.071261
     30 H11         2.4320   -2.3350   -2.6120 hc        1 MOL      0.131116
     31 H12         4.1320   -3.0650   -2.3740 hc        1 MOL      0.131116
     32 H13         3.2880    0.1920   -4.4130 hc        1 MOL      0.060936
     33 H14         1.9540   -0.2560   -3.2820 hc        1 MOL      0.060936
     34 H15         2.9660    1.0480   -2.8850 hc        1 MOL      0.060936
     35 H16         3.2740   -3.8670   -4.5190 hc        1 MOL     -0.020178
     36 H17         2.7000   -2.2070   -4.9620 hc        1 MOL     -0.020178
     37 H18         4.3620   -2.6410   -4.8300 hc        1 MOL     -0.020178
     38 N3          6.7230   -1.1430   -1.0180 n         1 MOL     -0.211175
     39 C13         7.5390   -1.7150    0.0220 c3        1 MOL      0.048866
     40 C14         7.2840   -3.2390    0.3560 c         1 MOL      0.681466
     41 O6          8.1440   -4.0720    0.2030 o         1 MOL     -0.580097
     42 C15         7.6640   -0.8310    1.2800 c3        1 MOL     -0.318997
     43 C16         8.8310   -1.1790    2.0510 c         1 MOL      0.732835
     44 O7          9.7040   -0.2760    2.0390 o         1 MOL     -0.734353
     45 O8          8.9890   -2.2550    2.6960 o         1 MOL     -0.734353
     46 H19         6.2720   -0.3370   -0.6290 hn        1 MOL      0.263797
     47 H20         8.5340   -1.7570   -0.4340 h1        1 MOL      0.036786
     48 H21         6.7820   -0.9120    1.9160 hc        1 MOL      0.077150
     49 H22         7.6560    0.1580    0.8180 hc        1 MOL      0.077150
     50 N4          6.1440   -3.6650    0.8830 n         1 MOL     -0.639229
     51 C17         4.9020   -2.8970    0.9380 c3        1 MOL      0.045417
     52 C18         3.7580   -3.8830    1.1790 c         1 MOL      0.458666
     53 O9          3.7730   -5.0550    0.7090 o         1 MOL     -0.540892
     54 H23         6.0770   -4.5340    1.3960 hn        1 MOL      0.352599
     55 H24         4.6310   -2.3650    0.0300 h1        1 MOL      0.109428
     56 H25         4.9470   -2.1730    1.7530 h1        1 MOL      0.109428
     57 N5          2.7470   -3.5490    2.0210 n         1 MOL     -0.340745
     58 C19         2.3400   -2.1610    2.4890 c3        1 MOL      0.011865
     59 C20         2.4520   -1.0820    1.3690 c         1 MOL      0.186605
     60 O10         3.4490   -0.3480    1.2460 o         1 MOL     -0.539066
     61 C21         3.0870   -1.8660    3.7820 c3        1 MOL     -0.465381
     62 C22         2.6690   -0.4730    4.2680 c         1 MOL      0.934917
     63 O11         3.5110    0.2390    4.8170 o         1 MOL     -0.733142
     64 O12         1.4690   -0.2170    4.3360 o         1 MOL     -0.733142
     65 H26         2.1370   -4.2970    2.3190 hn        1 MOL      0.234271
     66 H27         1.2940   -2.3370    2.7780 h1        1 MOL      0.073274
     67 H28         4.1660   -1.9210    3.6000 hc        1 MOL      0.122371
     68 H29         2.6450   -2.4780    4.5700 hc        1 MOL      0.122371
     69 N6          1.4360   -0.8550    0.5790 n         1 MOL      0.007417
     70 C23         0.1370   -1.4070    0.6450 c3        1 MOL     -0.116922
     71 C24        -0.0610   -2.6950   -0.0550 c         1 MOL      0.416901
     72 O13         0.6300   -2.9900   -1.0150 o         1 MOL     -0.478386
     73 H30         1.5010   -0.1100   -0.1050 hn        1 MOL      0.217488
     74 H31        -0.4860   -0.6740    0.1500 h1        1 MOL      0.012669
     75 H32        -0.1750   -1.6610    1.6590 h1        1 MOL      0.012669
     76 N7         -1.0670   -3.4280    0.3870 n         1 MOL     -0.126087
     77 C25        -1.3390   -4.8410    0.0190 c3        1 MOL     -0.183540
     78 C26        -1.9400   -4.9340   -1.4490 c         1 MOL      0.491786
     79 O14        -1.5160   -5.7300   -2.2550 o         1 MOL     -0.496277
     80 C27        -2.3120   -5.4400    1.0730 c3        1 MOL      0.100906
     81 C28        -1.8870   -5.0740    2.4680 c3        1 MOL     -0.176048
     82 C29        -0.4100   -5.3780    2.7900 c         1 MOL      0.680339
     83 N8          0.1280   -4.6770    3.7510 n         1 MOL     -0.826865
     84 O15         0.3200   -6.1120    2.1480 o         1 MOL     -0.531246
     85 H33        -1.7280   -2.9670    0.9980 hn        1 MOL      0.219045
     86 H34        -0.3490   -5.3010    0.0760 h1        1 MOL      0.154897
     87 H35        -2.2830   -6.5310    0.9660 hc        1 MOL     -0.002443
     88 H36        -3.3200   -5.0910    0.8600 hc        1 MOL     -0.002443
     89 H37        -2.4970   -5.5740    3.2340 hc        1 MOL      0.034279
     90 H38        -2.0870   -4.0160    2.5610 hc        1 MOL      0.034279
     91 H39        -0.2920   -3.7800    3.9630 hn        1 MOL      0.389228
     92 H40         1.0540   -4.9890    3.9950 hn        1 MOL      0.389228
     93 N9         -2.7840   -3.9980   -1.7750 n         1 MOL     -0.405318
     94 C30        -3.3950   -3.7580   -3.1080 c3        1 MOL     -0.006210
     95 C31        -4.8790   -3.6620   -3.0220 c         1 MOL      0.528286
     96 O16        -5.5500   -3.9580   -4.0160 o         1 MOL     -0.544423
     97 C32        -2.7860   -2.5330   -3.8020 c3        1 MOL      0.169342
     98 C33        -1.2940   -2.6320   -4.1090 c3        1 MOL     -0.266535
     99 C34        -3.0030   -1.1670   -3.0710 c3        1 MOL     -0.266535
    100 H41        -2.9620   -3.2570   -1.1180 hn        1 MOL      0.183245
    101 H42        -3.1740   -4.5970   -3.7710 h1        1 MOL      0.110740
    102 H43        -3.2880   -2.4990   -4.7720 hc        1 MOL      0.000961
    103 H44        -0.6580   -2.5020   -3.2360 hc        1 MOL      0.073622
    104 H45        -1.0120   -3.6520   -4.4040 hc        1 MOL      0.073622
    105 H46        -0.9930   -1.8380   -4.7900 hc        1 MOL      0.073622
    106 H47        -4.0450   -0.9320   -2.8310 hc        1 MOL      0.073622
    107 H48        -2.3400   -1.1200   -2.2080 hc        1 MOL      0.073622
    108 H49        -2.7880   -0.3150   -3.7080 hc        1 MOL      0.073622
    109 N10        -5.4760   -3.1900   -1.8970 n         1 MOL     -0.508587
    110 C35        -6.8820   -2.7810   -1.7280 c3        1 MOL      0.334294
    111 C36        -7.1390   -1.2950   -1.3310 c         1 MOL      0.442038
    112 O17        -8.2370   -0.8100   -1.6430 o         1 MOL     -0.516697
    113 C37        -7.6940   -3.9070   -1.0220 c3        1 MOL     -0.423716
    114 C38        -9.0570   -3.5360   -0.6200 c         1 MOL      0.772719
    115 N11       -10.0170   -3.3960   -1.5150 n         1 MOL     -0.856681
    116 O18        -9.3560   -3.4020    0.5500 o         1 MOL     -0.585143
    117 H50        -4.8700   -3.0240   -1.1060 hn        1 MOL      0.294611
    118 H51        -7.2420   -2.7570   -2.7630 h1        1 MOL      0.031670
    119 H52        -7.1160   -4.1150   -0.1250 hc        1 MOL      0.111975
    120 H53        -7.7570   -4.8270   -1.6060 hc        1 MOL      0.111975
    121 H54        -9.9060   -3.5050   -2.5130 hn        1 MOL      0.372049
    122 H55       -10.9590   -3.2340   -1.1700 hn        1 MOL      0.372049
    123 N12        -6.1430   -0.5640   -0.7740 n         1 MOL     -0.458000
    124 C39        -6.5950    0.8570   -0.2950 c3        1 MOL      0.152222
    125 C40        -5.4170    1.7260   -0.0440 c         1 MOL      0.548207
    126 O19        -4.2690    1.2920    0.0090 o         1 MOL     -0.460794
    127 C41        -7.5640    0.7140    0.9470 c3        1 MOL     -0.341831
    128 C42        -6.8610    0.8350    2.3220 ca        1 MOL     -0.037517
    129 C43        -7.0360    2.0080    3.1290 ca        1 MOL     -0.092625
    130 C44        -6.0540   -0.2510    2.8420 ca        1 MOL     -0.092625
    131 C45        -6.4760    2.0670    4.4390 ca        1 MOL     -0.363656
    132 C46        -5.5450   -0.1390    4.1760 ca        1 MOL     -0.363656
    133 C47        -5.6310    1.0160    4.9140 ca        1 MOL      0.497013
    134 O20        -5.1610    1.1410    6.1820 oh        1 MOL     -0.533104
    135 H56        -5.2730   -1.0000   -0.5240 hn        1 MOL      0.255323
    136 H57        -7.1810    1.2910   -1.1030 h1        1 MOL      0.068710
    137 H58        -7.9710   -0.2950    0.9590 hc        1 MOL      0.146797
    138 H59        -8.3070    1.5050    0.8000 hc        1 MOL      0.146797
    139 H60        -7.5230    2.9060    2.7860 ha        1 MOL      0.125605
    140 H61        -5.8620   -1.1690    2.3110 ha        1 MOL      0.125605
    141 H62        -6.7960    2.8350    5.1440 ha        1 MOL      0.163800
    142 H63        -4.9360   -0.9650    4.5400 ha        1 MOL      0.163800
    143 H64        -5.2910    2.0360    6.4930 ho        1 MOL      0.399078
    144 N13        -5.6960    3.0240    0.2460 n         1 MOL     -0.825521
    145 C48        -4.7550    4.1340    0.6370 c3        1 MOL      0.421790
    146 C49        -3.6360    4.5090   -0.4070 c         1 MOL      0.222083
    147 O21        -3.3480    5.7140   -0.4800 o         1 MOL     -0.514034
    148 C50        -4.1430    3.8070    2.0420 c3        1 MOL     -0.286186
    149 C51        -3.3460    5.0640    2.5470 c3        1 MOL     -0.369520
    150 C52        -2.9910    4.8160    4.0060 c         1 MOL      0.758902
    151 O22        -1.8910    4.2470    4.3090 o         1 MOL     -0.742634
    152 O23        -3.7500    5.3180    4.8740 o         1 MOL     -0.742634
    153 H65        -6.6490    3.3320    0.1650 hn        1 MOL      0.368134
    154 H66        -5.3400    5.0310    0.7970 h1        1 MOL      0.004278
    155 H67        -3.4050    3.0100    1.9160 hc        1 MOL      0.171079
    156 H68        -4.9880    3.6370    2.7130 hc        1 MOL      0.171079
    157 H69        -4.0550    5.8910    2.4670 hc        1 MOL      0.104990
    158 H70        -2.4730    5.0670    1.9040 hc        1 MOL      0.104990
    159 N14        -3.0990    3.6110   -1.2270 n         1 MOL     -0.170403
    160 C53        -2.1280    3.9040   -2.2800 c3        1 MOL     -0.127255
    161 C54        -2.7980    4.4800   -3.5750 c         1 MOL      0.523730
    162 O24        -2.1510    4.8220   -4.5800 o         1 MOL     -0.545295
    163 C55        -1.4600    2.5600   -2.6950 c3        1 MOL     -0.053709
    164 C56        -0.8410    1.8020   -1.5100 c3        1 MOL      0.521578
    165 C57         0.2640    2.4940   -0.7000 c         1 MOL      0.572602
    166 O25        -0.0620    3.3580    0.1610 o         1 MOL     -0.673134
    167 O26         1.4110    2.0340   -0.6030 o         1 MOL     -0.673134
    168 H71        -3.4690    2.6720   -1.1400 hn        1 MOL      0.133905
    169 H72        -1.4470    4.6390   -1.8550 h1        1 MOL      0.181251
    170 H73        -0.6780    2.9110   -3.3560 hc        1 MOL     -0.019756
    171 H74        -2.1140    1.8230   -3.1670 hc        1 MOL     -0.019756
    172 H75        -0.4390    0.9040   -1.9770 hc        1 MOL     -0.126684
    173 H76        -1.5600    1.5190   -0.7400 hc        1 MOL     -0.126684
    174 N15        -4.1070    4.6970   -3.5060 n         1 MOL     -0.308559
    175 C58        -4.9090    5.2230   -4.6330 c3        1 MOL     -0.083939
    176 H77        -4.2820    5.2920   -5.5230 h1        1 MOL      0.058176
    177 H78        -5.7450    4.5510   -4.8290 h1        1 MOL      0.058176
    178 H79        -5.2890    6.2130   -4.3790 h1        1 MOL      0.058176
    179 H80        -4.5640    4.7770   -2.6020 hn        1 MOL      0.254587
    180 Ca1         3.5670    2.2890    0.8460 Ca        1 MOL      1.776234
    181 O27         1.7230    1.8290    2.6000 oh        1 MOL     -0.926813
    182 H81         0.7930    2.0090    2.4640 ho        1 MOL      0.440385
    183 H82         1.7530    1.3410    3.4300 ho        1 MOL      0.440385
    184 O28         2.0570    4.3580    1.6220 oh        1 MOL     -0.926813
    185 H83         1.4140    4.1650    0.9290 ho        1 MOL      0.440385
    186 H84         1.5330    4.6750    2.3560 ho        1 MOL      0.440385
    187 O29         5.1600    1.5110    2.7460 oh        1 MOL     -0.926813
    188 H85         6.1040    1.5960    2.8050 ho        1 MOL      0.440385
    189 H86         4.9000    1.1400    3.5930 ho        1 MOL      0.440385
@<TRIPOS>BOND
     1    1    2 1   
     2    1    4 1   
     3    1    5 1   
     4    1    6 1   
     5    2    3 2   
     6    2    7 1   
     7    7    8 1   
     8    7   15 1   
     9    8    9 1   
    10    8   11 1   
    11    8   16 1   
    12    9   10 2   
    13    9   19 1   
    14   11   12 1   
    15   11   17 1   
    16   11   18 1   
    17   12   13 1   
    18   12   14 1   
    19   19   20 1   
    20   19   27 1   
    21   20   21 1   
    22   20   23 1   
    23   20   28 1   
    24   21   22 2   
    25   21   38 1   
    26   23   24 1   
    27   23   25 1   
    28   23   29 1   
    29   24   26 1   
    30   24   30 1   
    31   24   31 1   
    32   25   32 1   
    33   25   33 1   
    34   25   34 1   
    35   26   35 1   
    36   26   36 1   
    37   26   37 1   
    38   38   39 1   
    39   38   46 1   
    40   39   40 1   
    41   39   42 1   
    42   39   47 1   
    43   40   41 2   
    44   40   50 1   
    45   42   43 1   
    46   42   48 1   
    47   42   49 1   
    48   43   44 1   
    49   43   45 1   
    50   50   51 1   
    51   50   54 1   
    52   51   52 1   
    53   51   55 1   
    54   51   56 1   
    55   52   53 2   
    56   52   57 1   
    57   57   58 1   
    58   57   65 1   
    59   58   59 1   
    60   58   61 1   
    61   58   66 1   
    62   59   60 2   
    63   59   69 1   
    64   61   62 1   
    65   61   67 1   
    66   61   68 1   
    67   62   63 1   
    68   62   64 1   
    69   69   70 1   
    70   69   73 1   
    71   70   71 1   
    72   70   74 1   
    73   70   75 1   
    74   71   72 2   
    75   71   76 1   
    76   76   77 1   
    77   76   85 1   
    78   77   78 1   
    79   77   80 1   
    80   77   86 1   
    81   78   79 2   
    82   78   93 1   
    83   80   81 1   
    84   80   87 1   
    85   80   88 1   
    86   81   82 1   
    87   81   89 1   
    88   81   90 1   
    89   82   83 1   
    90   82   84 2   
    91   83   91 1   
    92   83   92 1   
    93   93   94 1   
    94   93  100 1   
    95   94   95 1   
    96   94   97 1   
    97   94  101 1   
    98   95   96 2   
    99   95  109 1   
   100   97   98 1   
   101   97   99 1   
   102   97  102 1   
   103   98  103 1   
   104   98  104 1   
   105   98  105 1   
   106   99  106 1   
   107   99  107 1   
   108   99  108 1   
   109  109  110 1   
   110  109  117 1   
   111  110  111 1   
   112  110  113 1   
   113  110  118 1   
   114  111  112 2   
   115  111  123 1   
   116  113  114 1   
   117  113  119 1   
   118  113  120 1   
   119  114  115 1   
   120  114  116 2   
   121  115  121 1   
   122  115  122 1   
   123  123  124 1   
   124  123  135 1   
   125  124  125 1   
   126  124  127 1   
   127  124  136 1   
   128  125  126 2   
   129  125  144 1   
   130  127  128 1   
   131  127  137 1   
   132  127  138 1   
   133  128  129 ar  
   134  128  130 ar  
   135  129  131 ar  
   136  129  139 1   
   137  130  132 ar  
   138  130  140 1   
   139  131  133 ar  
   140  131  141 1   
   141  132  133 ar  
   142  132  142 1   
   143  133  134 1   
   144  134  143 1   
   145  144  145 1   
   146  144  153 1   
   147  145  146 1   
   148  145  148 1   
   149  145  154 1   
   150  146  147 2   
   151  146  159 1   
   152  148  149 1   
   153  148  155 1   
   154  148  156 1   
   155  149  150 1   
   156  149  157 1   
   157  149  158 1   
   158  150  151 1   
   159  150  152 1   
   160  159  160 1   
   161  159  168 1   
   162  160  161 1   
   163  160  163 1   
   164  160  169 1   
   165  161  162 2   
   166  161  174 1   
   167  163  164 1   
   168  163  170 1   
   169  163  171 1   
   170  164  165 1   
   171  164  172 1   
   172  164  173 1   
   173  165  166 1   
   174  165  167 1   
   175  174  175 1   
   176  174  179 1   
   177  175  176 1   
   178  175  177 1   
   179  175  178 1   
   180  181  182 1   
   181  181  183 1   
   182  184  185 1   
   183  184  186 1   
   184  187  188 1   
   185  187  189 1   
@<TRIPOS>SUBSTRUCTURE
     1 MOL         1 TEMP              0 ****  ****    0 ROOT
