@<TRIPOS>MOLECULE
MOL
  181   177     1     0     0
SMALL
resp


@<TRIPOS>ATOM
      1 C1          2.0670    6.7860   -1.4880 c3        1 MOL     -0.418737
      2 C2          3.3870    6.5680   -0.7090 c         1 MOL      0.663674
      3 O1          3.3590    6.8690    0.4960 o         1 MOL     -0.584144
      4 H1          1.5530    7.6610   -1.0920 hc        1 MOL      0.101392
      5 H2          2.2890    6.9410   -2.5430 hc        1 MOL      0.101392
      6 H3          1.4300    5.9080   -1.3750 hc        1 MOL      0.101392
      7 N1          4.4510    6.1730   -1.3670 n         1 MOL     -0.493605
      8 C3          5.7700    5.9290   -0.8760 c3        1 MOL      0.165117
      9 C4          5.9180    4.5640   -0.1690 c         1 MOL      0.531244
     10 O2          6.5600    3.6500   -0.6160 o         1 MOL     -0.484506
     11 C5          6.7730    6.1650   -1.9920 c3        1 MOL     -0.244640
     12 C6          8.1990    5.9380   -1.3930 c         1 MOL      0.774366
     13 O3          8.4640    6.5720   -0.3560 o         1 MOL     -0.738025
     14 O4          9.0420    5.2990   -2.0360 o         1 MOL     -0.738025
     15 H4          4.2490    5.9170   -2.3220 hn        1 MOL      0.293171
     16 H5          6.0080    6.6530   -0.0910 h1        1 MOL      0.031041
     17 H6          6.7250    7.1110   -2.5310 hc        1 MOL      0.019548
     18 H7          6.5830    5.4150   -2.7680 hc        1 MOL      0.019548
     19 N2          5.2140    4.3350    0.9170 n         1 MOL     -0.612902
     20 C7          5.3600    3.2850    1.9380 c3        1 MOL      0.647652
     21 C8          4.0310    2.4980    2.2370 c         1 MOL      0.408040
     22 O5          3.0050    3.0760    1.8140 o         1 MOL     -0.558850
     23 C9          6.0300    3.9090    3.1460 c3        1 MOL     -0.424940
     24 H8          4.5520    5.0560    1.1460 hn        1 MOL      0.253700
     25 H9          5.9890    2.5230    1.4920 h1        1 MOL     -0.055035
     26 H10         5.3780    4.6220    3.6600 hc        1 MOL      0.096207
     27 H11         6.3240    3.1780    3.9100 hc        1 MOL      0.096207
     28 H12         6.9860    4.3190    2.8290 hc        1 MOL      0.096207
     29 N3          3.9080    1.2500    2.6770 n         1 MOL     -0.541936
     30 C10         5.0330    0.3860    2.9780 c3        1 MOL      0.072977
     31 C11         5.4590   -0.4150    1.7580 c         1 MOL      0.581173
     32 O6          4.6790   -0.6150    0.7550 o         1 MOL     -0.508177
     33 C12         4.6020   -0.5930    4.1140 c3        1 MOL     -0.236400
     34 C13         3.2730   -1.3350    3.8780 c         1 MOL      0.808949
     35 O7          3.2360   -2.5770    4.1220 o         1 MOL     -0.729436
     36 O8          2.2390   -0.7330    3.5690 o         1 MOL     -0.729436
     37 H13         3.0120    0.7920    2.5790 hn        1 MOL      0.407273
     38 H14         5.9290    0.8700    3.3630 h1        1 MOL      0.016807
     39 H15         4.5070   -0.0720    5.0740 hc        1 MOL      0.054007
     40 H16         5.3930   -1.3410    4.1540 hc        1 MOL      0.054007
     41 N4          6.6510   -0.9680    1.8840 n         1 MOL     -0.480054
     42 C14         7.1900   -1.8510    0.8550 c3        1 MOL     -0.106518
     43 C15         7.5440   -1.1560   -0.4230 c         1 MOL      0.567997
     44 O9          8.0610   -0.0180   -0.4510 o         1 MOL     -0.474188
     45 H17         7.1310   -0.8940    2.7660 hn        1 MOL      0.351183
     46 H18         6.3850   -2.5570    0.6780 h1        1 MOL      0.079289
     47 H19         8.0830   -2.3380    1.2260 h1        1 MOL      0.079289
     48 N5          7.1910   -1.7410   -1.5840 n         1 MOL     -0.616589
     49 C16         6.3160   -2.9200   -1.8700 c3        1 MOL      0.330837
     50 C17         4.9910   -2.4160   -2.5390 c         1 MOL      0.381039
     51 O10         4.9380   -1.4000   -3.2520 o         1 MOL     -0.465063
     52 C18         7.0850   -3.9100   -2.6850 c3        1 MOL     -0.337807
     53 C19         8.3730   -4.3280   -2.0190 c         1 MOL      0.663453
     54 N6          8.3640   -4.8340   -0.7950 n         1 MOL     -0.774131
     55 O11         9.5070   -4.2580   -2.6500 o         1 MOL     -0.548791
     56 H20         7.3500   -1.1950   -2.4120 hn        1 MOL      0.358777
     57 H21         5.9970   -3.3290   -0.9130 h1        1 MOL     -0.047071
     58 H22         7.4280   -3.4310   -3.5970 hc        1 MOL      0.093287
     59 H23         6.5480   -4.8250   -2.9330 hc        1 MOL      0.093287
     60 H24         7.4720   -4.9120   -0.3240 hn        1 MOL      0.363946
     61 H25         9.2520   -4.7810   -0.3190 hn        1 MOL      0.363946
     62 N7          4.0860   -3.3510   -2.5760 n         1 MOL     -0.178688
     63 C20         2.9700   -3.4230   -3.4910 c3        1 MOL     -0.240198
     64 C21         1.5970   -3.8120   -3.0440 c         1 MOL      0.590974
     65 O12         0.6020   -3.8350   -3.7940 o         1 MOL     -0.583443
     66 H26         4.1980   -4.1540   -1.9730 hn        1 MOL      0.184851
     67 H27         3.3630   -4.1740   -4.1790 h1        1 MOL      0.134895
     68 H28         2.9510   -2.4510   -3.9960 h1        1 MOL      0.134895
     69 N8          1.5270   -4.2770   -1.8170 n         1 MOL     -0.510611
     70 C22         0.3760   -4.9540   -1.1930 c3        1 MOL      0.420728
     71 C23        -0.7370   -3.8980   -0.7490 c         1 MOL      0.586869
     72 O13        -0.5710   -3.1730    0.2380 o         1 MOL     -0.678297
     73 C24         0.6800   -5.8360    0.0240 c3        1 MOL      0.230719
     74 C25        -0.5750   -6.5840    0.5410 c3        1 MOL     -0.389963
     75 O14         1.6430   -6.8050   -0.3540 oh        1 MOL     -0.663175
     76 H29         2.3610   -4.3910   -1.2740 hn        1 MOL      0.264180
     77 H30         0.0020   -5.6900   -1.8940 h1        1 MOL     -0.016548
     78 H31         1.1920   -5.2350    0.7760 h1        1 MOL     -0.015085
     79 H32         1.8550   -7.2280    0.4860 ho        1 MOL      0.398216
     80 H33        -1.1900   -6.0550    1.2540 hc        1 MOL      0.114540
     81 H34        -1.1540   -6.8490   -0.3450 hc        1 MOL      0.114540
     82 H35        -0.2530   -7.5090    1.0140 hc        1 MOL      0.114540
     83 N9         -1.8130   -3.9120   -1.5820 n         1 MOL     -0.481506
     84 C26        -2.8690   -3.0540   -1.4790 c3        1 MOL     -0.084904
     85 C27        -3.6410   -3.4940   -0.2800 c         1 MOL      0.386915
     86 O15        -4.1580   -4.6010   -0.2520 o         1 MOL     -0.573738
     87 C28        -3.7430   -3.0950   -2.8010 c3        1 MOL      0.132153
     88 C29        -4.9440   -2.1460   -2.5720 c3        1 MOL      0.136027
     89 C30        -2.9030   -2.6680   -4.0160 c3        1 MOL     -0.409524
     90 C31        -6.0620   -2.1750   -3.7030 c3        1 MOL     -0.262382
     91 H36        -1.8360   -4.5660   -2.3380 hn        1 MOL      0.295762
     92 H37        -2.5820   -2.0140   -1.3270 h1        1 MOL      0.230088
     93 H38        -3.9550   -4.1510   -2.9810 hc        1 MOL      0.012570
     94 H39        -4.4720   -1.1650   -2.5150 hc        1 MOL     -0.017491
     95 H40        -5.5350   -2.4110   -1.6970 hc        1 MOL     -0.017491
     96 H41        -2.3120   -3.5470   -4.2660 hc        1 MOL      0.107879
     97 H42        -3.4620   -2.2030   -4.8260 hc        1 MOL      0.107879
     98 H43        -2.1110   -1.9980   -3.7020 hc        1 MOL      0.107879
     99 H44        -5.5670   -1.7520   -4.5790 hc        1 MOL      0.050103
    100 H45        -6.4070   -3.1910   -3.9130 hc        1 MOL      0.050103
    101 H46        -6.8870   -1.5230   -3.4250 hc        1 MOL      0.050103
    102 N10        -3.7490   -2.5490    0.6460 n         1 MOL      0.003542
    103 C32        -4.6870   -2.5510    1.7840 c3        1 MOL     -0.000093
    104 C33        -5.9800   -1.7380    1.4930 c         1 MOL      0.397076
    105 O16        -6.9140   -1.8810    2.2530 o         1 MOL     -0.537908
    106 C34        -4.0380   -2.1620    3.1140 c3        1 MOL      0.112680
    107 C35        -2.8180   -3.1190    3.5380 c         1 MOL      0.624355
    108 O17        -1.6380   -2.6990    3.4250 o         1 MOL     -0.685802
    109 O18        -3.1210   -4.2050    4.0800 o         1 MOL     -0.685802
    110 H47        -3.1610   -1.7250    0.5540 hn        1 MOL     -0.006520
    111 H48        -5.0240   -3.5730    1.9940 h1        1 MOL      0.073228
    112 H49        -4.7700   -2.2510    3.9170 hc        1 MOL     -0.053626
    113 H50        -3.7290   -1.1200    3.0340 hc        1 MOL     -0.053626
    114 N11        -5.9940   -0.8330    0.5050 n         1 MOL     -0.288902
    115 C36        -6.9890    0.2810    0.3950 c3        1 MOL      0.256221
    116 C37        -6.3840    1.6870    0.2590 c         1 MOL      0.250402
    117 O19        -6.4660    2.3430   -0.7910 o         1 MOL     -0.465040
    118 C38        -8.0430    0.0030   -0.6960 c3        1 MOL     -0.446979
    119 C39        -9.2550    0.8720   -0.6780 ca        1 MOL      0.282619
    120 C40       -10.2230    0.7090   -1.7100 ca        1 MOL     -0.230355
    121 C41        -9.5590    1.6830    0.3990 ca        1 MOL     -0.230355
    122 C42       -11.3380    1.5250   -1.7040 ca        1 MOL     -0.077134
    123 C43       -10.7880    2.3870    0.4030 ca        1 MOL     -0.077134
    124 C44       -11.6780    2.3760   -0.6600 ca        1 MOL     -0.171259
    125 H51        -5.1770   -0.6860   -0.0620 hn        1 MOL      0.200897
    126 H52        -7.5060    0.3680    1.3500 h1        1 MOL      0.043927
    127 H53        -8.3920   -1.0270   -0.6170 hc        1 MOL      0.146657
    128 H54        -7.6080    0.0540   -1.6950 hc        1 MOL      0.146657
    129 H55       -10.0770   -0.0610   -2.4520 ha        1 MOL      0.124756
    130 H56        -8.8260    1.8760    1.1670 ha        1 MOL      0.124756
    131 H57       -11.9860    1.5480   -2.5680 ha        1 MOL      0.088598
    132 H58       -11.1070    3.0290    1.1980 ha        1 MOL      0.088598
    133 H59       -12.5500    3.0100   -0.7400 ha        1 MOL      0.119319
    134 N12        -5.6900    2.1720    1.3090 n         1 MOL     -0.033649
    135 C45        -5.0520    3.5190    1.4440 c3        1 MOL     -0.080281
    136 C46        -4.0240    3.8750    0.3500 c         1 MOL      0.333603
    137 O20        -3.6660    5.0420    0.2970 o         1 MOL     -0.489799
    138 C47        -4.5590    3.5000    2.8480 c3        1 MOL     -0.068998
    139 C48        -5.4250    2.5840    3.6970 c3        1 MOL     -0.134103
    140 C49        -5.5340    1.4720    2.6000 c3        1 MOL      0.001224
    141 H60        -5.8110    4.2740    1.2530 h1        1 MOL      0.119244
    142 H61        -3.5190    3.1830    2.9450 hc        1 MOL      0.058217
    143 H62        -4.7150    4.4880    3.2710 hc        1 MOL      0.058217
    144 H63        -4.9060    2.2340    4.5860 hc        1 MOL      0.063220
    145 H64        -6.4350    2.9220    3.9320 hc        1 MOL      0.063220
    146 H65        -4.6660    0.8280    2.4440 h1        1 MOL      0.048494
    147 H66        -6.3430    0.7720    2.8140 h1        1 MOL      0.048494
    148 N13        -3.6620    2.8840   -0.5320 n         1 MOL     -0.003288
    149 C50        -2.8450    3.1630   -1.7180 c3        1 MOL     -0.265868
    150 C51        -3.7540    3.6940   -2.9190 c         1 MOL      0.554328
    151 O21        -3.4160    4.6640   -3.5600 o         1 MOL     -0.544315
    152 C52        -2.0060    1.9520   -2.1760 c3        1 MOL      0.065437
    153 C53        -1.1140    1.2130   -1.1120 c3        1 MOL     -0.098532
    154 C54        -1.9900    0.3350   -0.2210 c         1 MOL      0.310029
    155 O22        -1.6120   -0.2490    0.8290 o         1 MOL     -0.507366
    156 O23        -3.1460    0.1170   -0.5800 o         1 MOL     -0.507366
    157 H67        -4.0430    1.9700   -0.3440 hn        1 MOL      0.147958
    158 H68        -2.1120    3.9540   -1.5560 h1        1 MOL      0.136637
    159 H69        -1.3240    2.2910   -2.9610 hc        1 MOL     -0.008214
    160 H70        -2.6370    1.2590   -2.7450 hc        1 MOL     -0.008214
    161 H71        -0.5090    1.9810   -0.6310 hc        1 MOL      0.072726
    162 H72        -0.3830    0.6020   -1.6260 hc        1 MOL      0.072726
    163 N14        -5.0240    3.2250   -3.0710 n         1 MOL     -0.234178
    164 C55        -6.0170    3.7080   -4.0560 c3        1 MOL     -0.178534
    165 H73        -6.5960    4.5210   -3.6170 h1        1 MOL      0.082305
    166 H74        -5.5020    4.0690   -4.9460 h1        1 MOL      0.082305
    167 H75        -6.6870    2.8920   -4.3280 h1        1 MOL      0.082305
    168 H76        -5.3720    2.5910   -2.3720 hn        1 MOL      0.172348
    169 Ca1         0.2360   -1.3870    2.0520 Ca        1 MOL      1.789622
    170 O24         1.3670   -3.6880    2.6940 oh        1 MOL     -0.951694
    171 H77         1.1970   -4.6090    2.8630 ho        1 MOL      0.440786
    172 H78         2.1050   -3.4730    3.2650 ho        1 MOL      0.440786
    173 O25         0.8940    1.3340    1.4920 oh        1 MOL     -0.951694
    174 H79         0.1770    1.9600    1.5290 ho        1 MOL      0.440786
    175 H80         1.6890    1.8640    1.5610 ho        1 MOL      0.440786
    176 O26         2.4060   -1.7580    0.5230 oh        1 MOL     -0.951694
    177 H81         2.7960   -0.9100    0.3340 ho        1 MOL      0.440786
    178 H82         3.1030   -2.3930    0.3160 ho        1 MOL      0.440786
    179 O27        -0.5930    0.2880    3.7750 oh        1 MOL     -0.951694
    180 H83        -0.2790    1.1670    4.0050 ho        1 MOL      0.440786
    181 H84        -1.3430    0.1410    4.3570 ho        1 MOL      0.440786
@<TRIPOS>BOND
     1    1    2 1   
     2    1    4 1   
     3    1    5 1   
     4    1    6 1   
     5    2    3 2   
     6    2    7 1   
     7    7    8 1   
     8    7   15 1   
     9    8    9 1   
    10    8   11 1   
    11    8   16 1   
    12    9   10 2   
    13    9   19 1   
    14   11   12 1   
    15   11   17 1   
    16   11   18 1   
    17   12   13 1   
    18   12   14 1   
    19   19   20 1   
    20   19   24 1   
    21   20   21 1   
    22   20   23 1   
    23   20   25 1   
    24   21   22 2   
    25   21   29 1   
    26   23   26 1   
    27   23   27 1   
    28   23   28 1   
    29   29   30 1   
    30   29   37 1   
    31   30   31 1   
    32   30   33 1   
    33   30   38 1   
    34   31   32 2   
    35   31   41 1   
    36   33   34 1   
    37   33   39 1   
    38   33   40 1   
    39   34   35 1   
    40   34   36 1   
    41   41   42 1   
    42   41   45 1   
    43   42   43 1   
    44   42   46 1   
    45   42   47 1   
    46   43   44 2   
    47   43   48 1   
    48   48   49 1   
    49   48   56 1   
    50   49   50 1   
    51   49   52 1   
    52   49   57 1   
    53   50   51 2   
    54   50   62 1   
    55   52   53 1   
    56   52   58 1   
    57   52   59 1   
    58   53   54 1   
    59   53   55 2   
    60   54   60 1   
    61   54   61 1   
    62   62   63 1   
    63   62   66 1   
    64   63   64 1   
    65   63   67 1   
    66   63   68 1   
    67   64   65 2   
    68   64   69 1   
    69   69   70 1   
    70   69   76 1   
    71   70   71 1   
    72   70   73 1   
    73   70   77 1   
    74   71   72 2   
    75   71   83 1   
    76   73   74 1   
    77   73   75 1   
    78   73   78 1   
    79   74   80 1   
    80   74   81 1   
    81   74   82 1   
    82   75   79 1   
    83   83   84 1   
    84   83   91 1   
    85   84   85 1   
    86   84   87 1   
    87   84   92 1   
    88   85   86 2   
    89   85  102 1   
    90   87   88 1   
    91   87   89 1   
    92   87   93 1   
    93   88   90 1   
    94   88   94 1   
    95   88   95 1   
    96   89   96 1   
    97   89   97 1   
    98   89   98 1   
    99   90   99 1   
   100   90  100 1   
   101   90  101 1   
   102  102  103 1   
   103  102  110 1   
   104  103  104 1   
   105  103  106 1   
   106  103  111 1   
   107  104  105 2   
   108  104  114 1   
   109  106  107 1   
   110  106  112 1   
   111  106  113 1   
   112  107  108 1   
   113  107  109 1   
   114  114  115 1   
   115  114  125 1   
   116  115  116 1   
   117  115  118 1   
   118  115  126 1   
   119  116  117 2   
   120  116  134 1   
   121  118  119 1   
   122  118  127 1   
   123  118  128 1   
   124  119  120 ar  
   125  119  121 ar  
   126  120  122 ar  
   127  120  129 1   
   128  121  123 ar  
   129  121  130 1   
   130  122  124 ar  
   131  122  131 1   
   132  123  124 ar  
   133  123  132 1   
   134  124  133 1   
   135  134  135 1   
   136  134  140 1   
   137  135  136 1   
   138  135  138 1   
   139  135  141 1   
   140  136  137 2   
   141  136  148 1   
   142  138  139 1   
   143  138  142 1   
   144  138  143 1   
   145  139  140 1   
   146  139  144 1   
   147  139  145 1   
   148  140  146 1   
   149  140  147 1   
   150  148  149 1   
   151  148  157 1   
   152  149  150 1   
   153  149  152 1   
   154  149  158 1   
   155  150  151 2   
   156  150  163 1   
   157  152  153 1   
   158  152  159 1   
   159  152  160 1   
   160  153  154 1   
   161  153  161 1   
   162  153  162 1   
   163  154  155 1   
   164  154  156 1   
   165  163  164 1   
   166  163  168 1   
   167  164  165 1   
   168  164  166 1   
   169  164  167 1   
   170  170  171 1   
   171  170  172 1   
   172  173  174 1   
   173  173  175 1   
   174  176  177 1   
   175  176  178 1   
   176  179  180 1   
   177  179  181 1   
@<TRIPOS>SUBSTRUCTURE
     1 MOL         1 TEMP              0 ****  ****    0 ROOT
