@<TRIPOS>MOLECULE
MOL
  182   178     1     0     0
SMALL
resp


@<TRIPOS>ATOM
      1 C1          0.1550   -3.8310    6.0300 c3        1 MOL     -0.328932
      2 C2          0.3730   -3.5600    4.5220 c         1 MOL      0.774703
      3 O1         -0.5230   -3.5270    3.7140 o         1 MOL     -0.624684
      4 H1          0.1850   -2.8890    6.5770 hc        1 MOL      0.101701
      5 H2         -0.8160   -4.3040    6.1790 hc        1 MOL      0.101701
      6 H3          0.9410   -4.4900    6.3990 hc        1 MOL      0.101701
      7 N1          1.5380   -3.2060    4.0350 n         1 MOL     -0.666903
      8 C3          1.8340   -2.8980    2.6770 c3        1 MOL      0.023562
      9 C4          1.8070   -4.2320    1.8170 c         1 MOL      0.716070
     10 O2          2.1580   -5.3100    2.2530 o         1 MOL     -0.552027
     11 C5          3.1630   -2.2120    2.6780 c3        1 MOL     -0.228246
     12 C6          3.4590   -1.4770    1.3540 c         1 MOL      0.340110
     13 O3          4.0390   -0.3300    1.4600 o         1 MOL     -0.600061
     14 O4          3.1430   -2.0130    0.2370 o         1 MOL     -0.600061
     15 H4          2.3110   -3.1150    4.6740 hn        1 MOL      0.325133
     16 H5          1.0570   -2.2450    2.2820 h1        1 MOL      0.042691
     17 H6          3.9670   -2.9380    2.7870 hc        1 MOL      0.119045
     18 H7          3.2730   -1.4900    3.4870 hc        1 MOL      0.119045
     19 N2          1.5910   -4.1680    0.4410 n         1 MOL     -0.477380
     20 C7          1.5070   -5.2860   -0.5150 c3        1 MOL      0.002085
     21 C8          2.7640   -5.3460   -1.4430 c         1 MOL      0.520712
     22 O5          2.9810   -6.3710   -2.0620 o         1 MOL     -0.564313
     23 C9          0.1450   -5.1340   -1.2540 c3        1 MOL     -0.136741
     24 C10         0.0950   -5.9080   -2.5690 c3        1 MOL      0.036887
     25 C11        -1.1640   -5.9750   -3.3920 c3        1 MOL     -0.033423
     26 C12        -2.3300   -6.7370   -2.6570 c3        1 MOL     -0.010841
     27 N3         -3.5800   -6.7660   -3.4360 n4        1 MOL     -0.313423
     28 H8          1.5080   -3.2470    0.0280 hn        1 MOL      0.355672
     29 H9          1.3890   -6.1990    0.0640 h1        1 MOL      0.113356
     30 H10         0.0620   -4.0640   -1.4510 hc        1 MOL      0.011361
     31 H11        -0.6670   -5.4990   -0.6200 hc        1 MOL      0.011361
     32 H12         0.3550   -6.9610   -2.4120 hc        1 MOL      0.035945
     33 H13         0.8350   -5.4990   -3.2580 hc        1 MOL      0.035945
     34 H14        -0.9130   -6.4720   -4.3290 hc        1 MOL      0.020030
     35 H15        -1.3250   -4.9270   -3.6600 hc        1 MOL      0.020030
     36 H16        -2.3510   -6.3020   -1.6540 hx        1 MOL      0.113374
     37 H17        -1.9790   -7.7560   -2.5390 hx        1 MOL      0.113374
     38 H18        -3.9120   -5.8200   -3.6190 hn        1 MOL      0.285292
     39 H19        -3.4790   -7.1580   -4.3620 hn        1 MOL      0.285292
     40 H20        -4.3040   -7.1750   -2.8610 hn        1 MOL      0.285292
     41 N4          3.6160   -4.2850   -1.3390 n         1 MOL     -0.198882
     42 C13         4.9510   -4.1440   -1.9090 c3        1 MOL      0.143063
     43 C14         6.0580   -3.7210   -0.8580 c         1 MOL      0.368473
     44 O6          7.1710   -4.2800   -0.8970 o         1 MOL     -0.518322
     45 C15         4.8770   -3.1380   -3.1020 c3        1 MOL     -0.386101
     46 C16         4.2700   -1.7760   -2.7480 c         1 MOL      0.831514
     47 O7          3.1430   -1.4570   -3.1960 o         1 MOL     -0.807029
     48 O8          4.6580   -1.0380   -1.8310 o         1 MOL     -0.807029
     49 H21         3.4210   -3.6260   -0.6050 hn        1 MOL     -0.023746
     50 H22         5.2470   -5.1390   -2.2400 h1        1 MOL      0.070983
     51 H23         4.3810   -3.5630   -3.9690 hc        1 MOL      0.114227
     52 H24         5.9370   -3.0480   -3.3710 hc        1 MOL      0.114227
     53 N5          5.6800   -2.8470    0.0630 n         1 MOL     -0.081419
     54 C17         6.5770   -2.4590    1.2130 c3        1 MOL     -0.278438
     55 C18         7.2170   -1.0500    1.0560 c         1 MOL      0.632734
     56 O9          7.8620   -0.6460    1.9850 o         1 MOL     -0.569422
     57 H25         4.8760   -2.2420   -0.0300 hn        1 MOL      0.230710
     58 H26         7.3170   -3.2450    1.3850 h1        1 MOL      0.129056
     59 H27         6.0030   -2.4430    2.1350 h1        1 MOL      0.129056
     60 N6          6.9790   -0.2920   -0.0180 n         1 MOL     -0.290445
     61 C19         7.4710    1.0590   -0.2020 c3        1 MOL      0.054670
     62 C20         6.3490    2.1020   -0.3120 c         1 MOL      0.622672
     63 O10         5.1670    1.7830   -0.6560 o         1 MOL     -0.538394
     64 C21         8.4940    1.1450   -1.3600 c3        1 MOL     -0.348050
     65 C22         9.6040    0.1840   -1.2780 c         1 MOL      0.725979
     66 N7         10.5050    0.3590   -0.3460 n         1 MOL     -0.817650
     67 O11         9.7540   -0.7050   -2.0570 o         1 MOL     -0.545762
     68 H28         6.3440   -0.6680   -0.7020 hn        1 MOL      0.223503
     69 H29         8.0060    1.3870    0.6870 h1        1 MOL      0.025113
     70 H30         8.8220    2.1890   -1.3750 hc        1 MOL      0.085027
     71 H31         8.0440    1.0420   -2.3430 hc        1 MOL      0.085027
     72 H32        10.4940    1.0960    0.3440 hn        1 MOL      0.371985
     73 H33        11.2500   -0.3200   -0.2870 hn        1 MOL      0.371985
     74 N8          6.5940    3.4100   -0.0770 n         1 MOL     -0.417620
     75 C23         5.6910    4.5050   -0.3440 c3        1 MOL     -0.182168
     76 C24         4.5370    4.6130    0.6160 c         1 MOL      0.670674
     77 O12         4.6920    4.6090    1.8490 o         1 MOL     -0.534159
     78 H34         7.5530    3.6790    0.0390 hn        1 MOL      0.316576
     79 H35         5.2120    4.3800   -1.3190 h1        1 MOL      0.093764
     80 H36         6.2960    5.4160   -0.2840 h1        1 MOL      0.093764
     81 N9          3.3760    4.6980    0.0280 n         1 MOL     -0.599698
     82 C25         2.1300    4.6490    0.6900 c3        1 MOL      0.187616
     83 C26         1.7880    3.2210    1.1570 c         1 MOL      0.471842
     84 O13         2.5700    2.2850    0.8150 o         1 MOL     -0.529008
     85 C27         1.1310    5.2370   -0.2890 c3        1 MOL     -0.096964
     86 C28         1.4270    6.6740   -0.7370 ca        1 MOL      0.061083
     87 C29         1.5450    7.6440    0.2800 ca        1 MOL     -0.155548
     88 C30         1.4710    7.0590   -2.1010 ca        1 MOL     -0.155548
     89 C31         1.6760    8.9970   -0.1080 ca        1 MOL     -0.256936
     90 C32         1.5370    8.3990   -2.4470 ca        1 MOL     -0.256936
     91 C33         1.7110    9.4030   -1.4800 ca        1 MOL      0.329046
     92 O14         2.0220   10.6560   -1.9010 oh        1 MOL     -0.462346
     93 H37         3.3930    4.6590   -0.9800 hn        1 MOL      0.309535
     94 H38         2.0450    5.3450    1.5290 h1        1 MOL      0.050864
     95 H39         0.1810    5.2680    0.2440 hc        1 MOL      0.018392
     96 H40         0.9890    4.5500   -1.1320 hc        1 MOL      0.018392
     97 H41         1.6010    7.4070    1.3230 ha        1 MOL      0.142928
     98 H42         1.2090    6.4590   -2.9690 ha        1 MOL      0.142928
     99 H43         1.7890    9.6470    0.7490 ha        1 MOL      0.153236
    100 H44         1.5720    8.6420   -3.4930 ha        1 MOL      0.153236
    101 H45         2.0070   11.2750   -1.1650 ho        1 MOL      0.369654
    102 N10         0.7310    3.0390    1.9090 n         1 MOL     -0.586380
    103 C34         0.2480    1.7610    2.4750 c3        1 MOL      0.126696
    104 C35        -0.0290    0.6720    1.3830 c         1 MOL      0.117214
    105 O15         0.8740    0.0180    0.8740 o         1 MOL      0.059048
    106 C36         1.1980    1.1830    3.5920 c3        1 MOL      0.244348
    107 C37         0.4570    0.0870    4.3570 c3        1 MOL     -0.175634
    108 C38         1.7440    2.2320    4.4890 c3        1 MOL     -0.226117
    109 C39        -0.7170    0.4780    5.3010 c3        1 MOL     -0.292690
    110 H46         0.2690    3.8930    2.2010 hn        1 MOL      0.333768
    111 H47        -0.7060    1.9690    2.9520 h1        1 MOL      0.077488
    112 H48         2.0350    0.6020    3.2190 hc        1 MOL     -0.007493
    113 H49         1.1840   -0.4360    4.9700 hc        1 MOL      0.094751
    114 H50         0.1040   -0.7180    3.7240 hc        1 MOL      0.094751
    115 H51         2.4650    2.8580    3.9730 hc        1 MOL      0.059298
    116 H52         0.9350    2.8550    4.8690 hc        1 MOL      0.059298
    117 H53         2.2960    1.7410    5.2910 hc        1 MOL      0.059298
    118 H54        -1.5180    0.7970    4.6300 hc        1 MOL      0.074761
    119 H55        -0.9590   -0.4170    5.8780 hc        1 MOL      0.074761
    120 H56        -0.3900    1.2890    5.9600 hc        1 MOL      0.074761
    121 N11        -1.3360    0.3900    1.1380 n         1 MOL     -0.359410
    122 C40        -1.7730   -0.7770    0.2680 c3        1 MOL     -0.170061
    123 C41        -3.2810   -0.7790   -0.1230 c         1 MOL      0.670318
    124 O16        -3.7420   -1.6410   -0.8770 o         1 MOL     -0.566967
    125 C42        -1.5600   -2.0920    1.0250 c3        1 MOL      0.427931
    126 O17        -2.0740   -1.9850    2.3280 oh        1 MOL     -0.649196
    127 H57        -2.0170    0.9960    1.5740 hn        1 MOL      0.254885
    128 H58        -1.0860   -0.7930   -0.5870 h1        1 MOL      0.040040
    129 H59        -0.4790   -2.2130    1.0450 h1        1 MOL     -0.057213
    130 H60        -2.0150   -2.9200    0.4840 h1        1 MOL     -0.057213
    131 H61        -1.5410   -2.6380    2.7980 ho        1 MOL      0.406742
    132 N12        -4.1200    0.0810    0.5160 n         1 MOL     -0.586973
    133 C43        -5.5210    0.2200   -0.0140 c3        1 MOL      0.093277
    134 C44        -5.6610    0.8070   -1.4290 c         1 MOL      0.606163
    135 O18        -4.6520    1.3240   -1.9150 o         1 MOL     -0.599407
    136 C45        -6.3490    0.9150    1.0300 c3        1 MOL     -0.128839
    137 H62        -3.8910    0.6080    1.3370 hn        1 MOL      0.351881
    138 H63        -5.9670   -0.7750   -0.0550 h1        1 MOL      0.115058
    139 H64        -5.8360    1.7720    1.4770 hc        1 MOL      0.052172
    140 H65        -7.2710    1.3930    0.7010 hc        1 MOL      0.052172
    141 H66        -6.4220    0.2070    1.8610 hc        1 MOL      0.052172
    142 N13        -6.7590    0.8200   -2.1210 n         1 MOL     -0.572598
    143 C46        -8.0400    0.1190   -1.9190 c3        1 MOL      0.331808
    144 C47        -9.3220    0.7500   -2.6000 c         1 MOL      0.296071
    145 O19        -9.2560    1.2760   -3.6780 o         1 MOL     -0.476046
    146 C48        -7.8420   -1.2320   -2.5440 c3        1 MOL     -0.171474
    147 H67        -6.6520    1.3620   -2.9690 hn        1 MOL      0.322255
    148 H68        -8.1240   -0.0290   -0.8450 h1        1 MOL     -0.075930
    149 H69        -8.7540   -1.8280   -2.6130 hc        1 MOL      0.052722
    150 H70        -7.4080   -1.0560   -3.5270 hc        1 MOL      0.052722
    151 H71        -7.1320   -1.8840   -2.0190 hc        1 MOL      0.052722
    152 N14       -10.5190    0.6990   -1.9460 n         1 MOL     -0.298000
    153 C49       -10.6810    0.3270   -0.5510 c3        1 MOL     -0.143441
    154 C50       -10.0870    1.3560    0.5270 c         1 MOL      0.416827
    155 O20        -9.6810    0.8860    1.5900 o         1 MOL     -0.511116
    156 C51       -12.2210    0.0380   -0.3970 c3        1 MOL     -0.046693
    157 C52       -12.6770   -0.4370    1.0030 c3        1 MOL     -0.220403
    158 C53       -14.1660   -0.6200    1.0680 c         1 MOL      0.750048
    159 O21       -14.9040    0.2780    1.4370 o         1 MOL     -0.700958
    160 O22       -14.5170   -1.8180    0.8270 o         1 MOL     -0.700958
    161 H72       -11.2930    1.0860   -2.4650 hn        1 MOL      0.272080
    162 H73       -10.2030   -0.6500   -0.4270 h1        1 MOL      0.148805
    163 H74       -12.4890   -0.6910   -1.1580 hc        1 MOL      0.038922
    164 H75       -12.7290    0.9950   -0.5770 hc        1 MOL      0.038922
    165 H76       -12.3960    0.3380    1.7260 hc        1 MOL      0.058581
    166 H77       -12.1840   -1.3460    1.3610 hc        1 MOL      0.058581
    167 N15       -10.0920    2.6290    0.1760 n         1 MOL     -0.168404
    168 C54        -9.4940    3.6720    0.9490 c3        1 MOL     -0.197748
    169 H78        -9.3690    4.5590    0.3270 h1        1 MOL      0.094335
    170 H79       -10.1370    3.9120    1.7960 h1        1 MOL      0.094335
    171 H80        -8.5200    3.3450    1.3120 h1        1 MOL      0.094335
    172 H81       -10.6780    2.8060   -0.6340 hn        1 MOL      0.239705
    173 Ca1         2.7700    0.3600   -1.0210 Ca        1 MOL      1.787204
    174 O23         3.3650    2.1580   -3.0170 oh        1 MOL     -0.869578
    175 H82         2.8840    1.9440   -3.8100 ho        1 MOL      0.425286
    176 H83         4.1050    2.6800   -3.3150 ho        1 MOL      0.425286
    177 O24         0.6370    1.8060   -1.9520 oh        1 MOL     -0.869578
    178 H84         0.2430    1.4350   -2.7440 ho        1 MOL      0.425286
    179 H85         0.0480    2.5070   -1.7020 ho        1 MOL      0.425286
    180 O25         0.8600   -1.3290   -1.9730 oh        1 MOL     -0.869578
    181 H86        -0.0130   -1.6680   -2.1750 ho        1 MOL      0.425286
    182 H87         1.4370   -1.7560   -2.6140 ho        1 MOL      0.425286
@<TRIPOS>BOND
     1    1    2 1   
     2    1    4 1   
     3    1    5 1   
     4    1    6 1   
     5    2    3 2   
     6    2    7 1   
     7    7    8 1   
     8    7   15 1   
     9    8    9 1   
    10    8   11 1   
    11    8   16 1   
    12    9   10 2   
    13    9   19 1   
    14   11   12 1   
    15   11   17 1   
    16   11   18 1   
    17   12   13 1   
    18   12   14 1   
    19   19   20 1   
    20   19   28 1   
    21   20   21 1   
    22   20   23 1   
    23   20   29 1   
    24   21   22 2   
    25   21   41 1   
    26   23   24 1   
    27   23   30 1   
    28   23   31 1   
    29   24   25 1   
    30   24   32 1   
    31   24   33 1   
    32   25   26 1   
    33   25   34 1   
    34   25   35 1   
    35   26   27 1   
    36   26   36 1   
    37   26   37 1   
    38   27   38 1   
    39   27   39 1   
    40   27   40 1   
    41   41   42 1   
    42   41   49 1   
    43   42   43 1   
    44   42   45 1   
    45   42   50 1   
    46   43   44 2   
    47   43   53 1   
    48   45   46 1   
    49   45   51 1   
    50   45   52 1   
    51   46   47 1   
    52   46   48 1   
    53   53   54 1   
    54   53   57 1   
    55   54   55 1   
    56   54   58 1   
    57   54   59 1   
    58   55   56 2   
    59   55   60 1   
    60   60   61 1   
    61   60   68 1   
    62   61   62 1   
    63   61   64 1   
    64   61   69 1   
    65   62   63 2   
    66   62   74 1   
    67   64   65 1   
    68   64   70 1   
    69   64   71 1   
    70   65   66 1   
    71   65   67 2   
    72   66   72 1   
    73   66   73 1   
    74   74   75 1   
    75   74   78 1   
    76   75   76 1   
    77   75   79 1   
    78   75   80 1   
    79   76   77 2   
    80   76   81 1   
    81   81   82 1   
    82   81   93 1   
    83   82   83 1   
    84   82   85 1   
    85   82   94 1   
    86   83   84 2   
    87   83  102 1   
    88   85   86 1   
    89   85   95 1   
    90   85   96 1   
    91   86   87 ar  
    92   86   88 ar  
    93   87   89 ar  
    94   87   97 1   
    95   88   90 ar  
    96   88   98 1   
    97   89   91 ar  
    98   89   99 1   
    99   90   91 ar  
   100   90  100 1   
   101   91   92 1   
   102   92  101 1   
   103  102  103 1   
   104  102  110 1   
   105  103  104 1   
   106  103  106 1   
   107  103  111 1   
   108  104  105 2   
   109  104  121 1   
   110  106  107 1   
   111  106  108 1   
   112  106  112 1   
   113  107  109 1   
   114  107  113 1   
   115  107  114 1   
   116  108  115 1   
   117  108  116 1   
   118  108  117 1   
   119  109  118 1   
   120  109  119 1   
   121  109  120 1   
   122  121  122 1   
   123  121  127 1   
   124  122  123 1   
   125  122  125 1   
   126  122  128 1   
   127  123  124 2   
   128  123  132 1   
   129  125  126 1   
   130  125  129 1   
   131  125  130 1   
   132  126  131 1   
   133  132  133 1   
   134  132  137 1   
   135  133  134 1   
   136  133  136 1   
   137  133  138 1   
   138  134  135 2   
   139  134  142 1   
   140  136  139 1   
   141  136  140 1   
   142  136  141 1   
   143  142  143 1   
   144  142  147 1   
   145  143  144 1   
   146  143  146 1   
   147  143  148 1   
   148  144  145 2   
   149  144  152 1   
   150  146  149 1   
   151  146  150 1   
   152  146  151 1   
   153  152  153 1   
   154  152  161 1   
   155  153  154 1   
   156  153  156 1   
   157  153  162 1   
   158  154  155 2   
   159  154  167 1   
   160  156  157 1   
   161  156  163 1   
   162  156  164 1   
   163  157  158 1   
   164  157  165 1   
   165  157  166 1   
   166  158  159 1   
   167  158  160 1   
   168  167  168 1   
   169  167  172 1   
   170  168  169 1   
   171  168  170 1   
   172  168  171 1   
   173  174  175 1   
   174  174  176 1   
   175  177  178 1   
   176  177  179 1   
   177  180  181 1   
   178  180  182 1   
@<TRIPOS>SUBSTRUCTURE
     1 MOL         1 TEMP              0 ****  ****    0 ROOT
