@<TRIPOS>MOLECULE
MOL
  182   178     1     0     0
SMALL
resp


@<TRIPOS>ATOM
      1 C1         -0.3340   -3.0690    6.7570 c3        1 MOL     -0.413642
      2 C2         -0.2540   -3.1380    5.1860 c         1 MOL      0.711482
      3 O1         -1.2200   -3.0740    4.4240 o         1 MOL     -0.597677
      4 H1         -1.3780   -3.0700    7.0680 hc        1 MOL      0.121141
      5 H2          0.1740   -3.9320    7.1850 hc        1 MOL      0.121141
      6 H3          0.1480   -2.1550    7.1060 hc        1 MOL      0.121141
      7 N1          0.9660   -3.0580    4.6530 n         1 MOL     -0.598456
      8 C3          1.3860   -3.0300    3.2290 c3        1 MOL      0.046322
      9 C4          1.1990   -4.4090    2.5220 c         1 MOL      0.602812
     10 O2          1.4510   -5.4390    3.1530 o         1 MOL     -0.544559
     11 C5          2.8140   -2.4660    3.1950 c3        1 MOL      0.144975
     12 C6          2.9230   -1.7930    1.8770 c         1 MOL      0.526735
     13 O3          3.6650   -0.8440    1.8500 o         1 MOL     -0.641298
     14 O4          2.4510   -2.1910    0.8050 o         1 MOL     -0.641298
     15 H4          1.7230   -3.1320    5.3260 hn        1 MOL      0.301560
     16 H5          0.7320   -2.3240    2.7180 h1        1 MOL     -0.041558
     17 H6          3.5530   -3.2560    3.3520 hc        1 MOL     -0.000099
     18 H7          2.9280   -1.7200    3.9820 hc        1 MOL     -0.000099
     19 N2          0.9150   -4.3420    1.2250 n         1 MOL     -0.321589
     20 C7          0.8680   -5.5270    0.2770 c3        1 MOL      0.049998
     21 C8          2.3240   -5.6950   -0.4480 c         1 MOL      0.475693
     22 O5          2.7700   -6.8270   -0.5210 o         1 MOL     -0.542171
     23 C9         -0.2760   -5.3300   -0.7710 c3        1 MOL     -0.169316
     24 C10        -0.1910   -4.1030   -1.8270 c3        1 MOL     -0.138364
     25 C11        -1.3870   -4.0840   -2.8130 c3        1 MOL      0.020683
     26 C12        -1.4920   -2.7600   -3.5570 c3        1 MOL     -0.032767
     27 N3         -2.7120   -2.7820   -4.3520 n4        1 MOL     -0.199354
     28 H8          0.7270   -3.4380    0.8200 hn        1 MOL      0.067652
     29 H9          0.7060   -6.3820    0.9290 h1        1 MOL      0.102232
     30 H10        -1.2650   -5.2550   -0.3340 hc        1 MOL      0.063339
     31 H11        -0.2770   -6.2410   -1.3640 hc        1 MOL      0.063339
     32 H12         0.7600   -4.1820   -2.3590 hc        1 MOL      0.111574
     33 H13        -0.2590   -3.1330   -1.3410 hc        1 MOL      0.111574
     34 H14        -2.2930   -4.3520   -2.2850 hc        1 MOL      0.033272
     35 H15        -1.2240   -4.8460   -3.5780 hc        1 MOL      0.033272
     36 H16        -0.5860   -2.7450   -4.1550 hx        1 MOL      0.047406
     37 H17        -1.4380   -1.9470   -2.8360 hx        1 MOL      0.047406
     38 H18        -2.7650   -1.9550   -4.9250 hn        1 MOL      0.268825
     39 H19        -2.8990   -3.5540   -4.9750 hn        1 MOL      0.268825
     40 H20        -3.5320   -2.6970   -3.7730 hn        1 MOL      0.268825
     41 N4          3.0410   -4.6090   -0.7730 n         1 MOL     -0.163565
     42 C13         4.3720   -4.7290   -1.3900 c3        1 MOL      0.031655
     43 C14         5.5930   -4.1340   -0.5800 c         1 MOL      0.442485
     44 O6          6.7040   -4.4380   -0.9930 o         1 MOL     -0.523049
     45 C15         4.3770   -3.9760   -2.7500 c3        1 MOL     -0.296015
     46 C16         4.0690   -2.4740   -2.7640 c         1 MOL      0.628141
     47 O7          4.1810   -1.8920   -3.8440 o         1 MOL     -0.636512
     48 O8          3.9090   -1.8480   -1.6940 o         1 MOL     -0.636512
     49 H21         2.6740   -3.7020   -0.5050 hn        1 MOL      0.077939
     50 H22         4.6340   -5.7820   -1.5250 h1        1 MOL      0.113578
     51 H23         3.6610   -4.5080   -3.3710 hc        1 MOL      0.083129
     52 H24         5.3620   -4.0840   -3.2120 hc        1 MOL      0.083129
     53 N5          5.3190   -3.3870    0.4890 n         1 MOL     -0.179189
     54 C17         6.3380   -2.8050    1.2620 c3        1 MOL     -0.274180
     55 C18         6.9930   -1.5600    0.6950 c         1 MOL      0.560988
     56 O9          7.8750   -0.9600    1.2680 o         1 MOL     -0.554970
     57 H25         4.3720   -3.0400    0.5350 hn        1 MOL      0.097366
     58 H26         7.1080   -3.5320    1.5040 h1        1 MOL      0.143908
     59 H27         5.9200   -2.6200    2.2440 h1        1 MOL      0.143908
     60 N6          6.5220   -1.1340   -0.4820 n         1 MOL     -0.247238
     61 C19         7.0520   -0.0040   -1.1770 c3        1 MOL      0.068429
     62 C20         6.1870    1.2610   -0.9400 c         1 MOL      0.574826
     63 O10         4.9480    1.1090   -0.6970 o         1 MOL     -0.584019
     64 C21         7.0810   -0.3430   -2.7020 c3        1 MOL     -0.153951
     65 C22         7.7440    0.6410   -3.6590 c         1 MOL      0.545229
     66 N7          8.9710    0.9430   -3.3590 n         1 MOL     -0.719860
     67 O11         7.2630    1.0630   -4.6960 o         1 MOL     -0.534708
     68 H28         5.7780   -1.6050   -0.9800 hn        1 MOL      0.185187
     69 H29         8.0690    0.1630   -0.8160 h1        1 MOL      0.015970
     70 H30         6.1040   -0.4530   -3.1710 hc        1 MOL      0.106148
     71 H31         7.7380   -1.2150   -2.7020 hc        1 MOL      0.106148
     72 H32         9.4660    0.4540   -2.6320 hn        1 MOL      0.347046
     73 H33         9.3860    1.6100   -3.9880 hn        1 MOL      0.347046
     74 N8          6.7310    2.4450   -1.2000 n         1 MOL     -0.427459
     75 C23         5.9270    3.6630   -1.2080 c3        1 MOL      0.008880
     76 C24         5.1280    4.0170    0.0170 c         1 MOL      0.564906
     77 O12         5.5140    3.7880    1.1850 o         1 MOL     -0.513607
     78 H34         7.7180    2.5440   -1.3560 hn        1 MOL      0.287219
     79 H35         5.2640    3.6710   -2.0770 h1        1 MOL      0.059195
     80 H36         6.5210    4.5550   -1.3800 h1        1 MOL      0.059195
     81 N9          3.8830    4.3560   -0.2310 n         1 MOL     -0.701447
     82 C25         2.8630    4.4430    0.8060 c3        1 MOL      0.514311
     83 C26         2.4390    3.1270    1.3890 c         1 MOL      0.376469
     84 O13         2.8850    2.0490    0.9770 o         1 MOL     -0.409199
     85 C27         1.7070    5.3850    0.3100 c3        1 MOL     -0.053553
     86 C28         2.1270    6.7620   -0.0840 ca        1 MOL      0.008175
     87 C29         1.6990    7.3810   -1.2430 ca        1 MOL     -0.159077
     88 C30         2.8600    7.5390    0.8230 ca        1 MOL     -0.159077
     89 C31         2.0280    8.7190   -1.5320 ca        1 MOL     -0.182648
     90 C32         3.2530    8.8540    0.6060 ca        1 MOL     -0.182648
     91 C33         2.7900    9.4690   -0.6060 ca        1 MOL      0.227763
     92 O14         3.0990   10.7850   -0.7240 oh        1 MOL     -0.424796
     93 H37         3.6750    4.4190   -1.2250 hn        1 MOL      0.312991
     94 H38         3.3710    4.9340    1.6400 h1        1 MOL      0.018861
     95 H39         0.8180    5.2570    0.9280 hc        1 MOL      0.005648
     96 H40         1.3970    4.8970   -0.6130 hc        1 MOL      0.005648
     97 H41         1.0740    6.8310   -1.9460 ha        1 MOL      0.109311
     98 H42         3.1370    7.0950    1.7680 ha        1 MOL      0.109311
     99 H43         1.7010    9.2160   -2.4340 ha        1 MOL      0.143080
    100 H44         3.8890    9.4310    1.2680 ha        1 MOL      0.143080
    101 H45         2.7280   11.2380   -1.4830 ho        1 MOL      0.355490
    102 N10         1.5700    3.1870    2.4210 n         1 MOL     -0.588585
    103 C34         0.7260    2.0700    2.9050 c3        1 MOL      0.027369
    104 C35        -0.1280    1.1990    1.9450 c         1 MOL      0.620493
    105 O15         0.5090    0.6410    1.0730 o         1 MOL     -0.567385
    106 C36         1.4420    1.1740    3.9580 c3        1 MOL      0.479867
    107 C37         0.5900    0.1680    4.7030 c3        1 MOL     -0.197963
    108 C38         2.1290    2.0250    5.0480 c3        1 MOL     -0.366550
    109 C39        -0.4400    0.7410    5.6610 c3        1 MOL     -0.246534
    110 H46         1.3570    4.1220    2.7330 hn        1 MOL      0.285205
    111 H47        -0.0450    2.5410    3.5180 h1        1 MOL      0.055464
    112 H48         2.1880    0.5800    3.4270 hc        1 MOL     -0.057230
    113 H49         1.2190   -0.5240    5.2550 hc        1 MOL      0.067238
    114 H50         0.0110   -0.3860    3.9650 hc        1 MOL      0.067238
    115 H51         2.5780    1.3100    5.7330 hc        1 MOL      0.086657
    116 H52         3.0050    2.5400    4.6820 hc        1 MOL      0.086657
    117 H53         1.4480    2.6060    5.6730 hc        1 MOL      0.086657
    118 H54        -0.7730    1.7040    5.2970 hc        1 MOL      0.062245
    119 H55        -1.2810    0.0550    5.7060 hc        1 MOL      0.062245
    120 H56        -0.0800    0.9380    6.6710 hc        1 MOL      0.062245
    121 N11        -1.4520    1.0350    1.9470 n         1 MOL     -0.552596
    122 C40        -2.1030    0.1300    0.9020 c3        1 MOL      0.043697
    123 C41        -3.6520    0.3540    0.6930 c         1 MOL      0.658609
    124 O16        -4.3310    1.0040    1.4450 o         1 MOL     -0.493251
    125 C42        -1.8380   -1.3090    1.3810 c3        1 MOL      0.142530
    126 O17        -2.1710   -2.2660    0.4250 oh        1 MOL     -0.610608
    127 H57        -2.0300    1.7400    2.3720 hn        1 MOL      0.287391
    128 H58        -1.5750    0.2850   -0.0390 h1        1 MOL      0.010412
    129 H59        -2.2700   -1.5630    2.3420 h1        1 MOL      0.100829
    130 H60        -0.7490   -1.3570    1.4250 h1        1 MOL      0.100829
    131 H61        -2.3130   -3.0990    0.8740 ho        1 MOL      0.411551
    132 N12        -4.0800   -0.2180   -0.4500 n         1 MOL     -0.634874
    133 C43        -5.4670   -0.2380   -1.0180 c3        1 MOL      0.120020
    134 C44        -5.6300   -1.4160   -2.0580 c         1 MOL      0.687356
    135 O18        -4.6830   -1.8140   -2.7010 o         1 MOL     -0.608542
    136 C45        -5.8580    1.2030   -1.5440 c3        1 MOL     -0.207424
    137 H62        -3.3610   -0.6260   -1.0390 hn        1 MOL      0.309416
    138 H63        -6.2070   -0.4930   -0.2620 h1        1 MOL      0.099547
    139 H64        -6.8390    1.1300   -2.0170 hc        1 MOL      0.056965
    140 H65        -5.8160    1.9430   -0.7470 hc        1 MOL      0.056965
    141 H66        -5.2850    1.5400   -2.4170 hc        1 MOL      0.056965
    142 N13        -6.7890   -2.1090   -2.2380 n         1 MOL     -0.627103
    143 C46        -8.0770   -1.8410   -1.6000 c3        1 MOL      0.108268
    144 C47        -8.8290   -0.6460   -2.2700 c         1 MOL      0.583101
    145 O19        -8.9110   -0.5080   -3.5510 o         1 MOL     -0.575676
    146 C48        -8.8040   -3.2460   -1.6890 c3        1 MOL     -0.316451
    147 H67        -6.7190   -2.9330   -2.8070 hn        1 MOL      0.354331
    148 H68        -7.9510   -1.6500   -0.5330 h1        1 MOL      0.092465
    149 H69        -9.8760   -3.1140   -1.5250 hc        1 MOL      0.112358
    150 H70        -8.7800   -3.7830   -2.6430 hc        1 MOL      0.112358
    151 H71        -8.4700   -3.9650   -0.9500 hc        1 MOL      0.112358
    152 N14        -9.4430    0.2880   -1.5460 n         1 MOL     -0.390304
    153 C49        -9.8460    0.2960   -0.1320 c3        1 MOL     -0.256040
    154 C50        -9.2510    1.4150    0.7630 c         1 MOL      0.457208
    155 O20        -9.3390    1.3250    1.9750 o         1 MOL     -0.478105
    156 C51       -11.3560    0.2140   -0.0100 c3        1 MOL      0.284097
    157 C52       -12.0650    1.5960   -0.1050 c3        1 MOL     -0.318323
    158 C53       -13.6180    1.5000   -0.3940 c         1 MOL      0.665711
    159 O21       -14.4410    1.7510    0.5380 o         1 MOL     -0.650654
    160 O22       -14.0100    1.0570   -1.5060 o         1 MOL     -0.650654
    161 H72        -9.8450    1.0240   -2.1050 hn        1 MOL      0.289223
    162 H73        -9.4750   -0.6180    0.3240 h1        1 MOL      0.077810
    163 H74       -11.7040   -0.3170    0.8840 hc        1 MOL     -0.004754
    164 H75       -11.7530   -0.3960   -0.8200 hc        1 MOL     -0.004754
    165 H76       -11.7730    2.1820   -0.9730 hc        1 MOL      0.058372
    166 H77       -11.9410    2.1190    0.8460 hc        1 MOL      0.058372
    167 N15        -8.8210    2.5100    0.1120 n         1 MOL     -0.217180
    168 C54        -8.4410    3.7690    0.8070 c3        1 MOL     -0.361060
    169 H78        -9.0920    3.9200    1.6680 h1        1 MOL      0.148811
    170 H79        -7.4060    3.7020    1.1440 h1        1 MOL      0.148811
    171 H80        -8.5460    4.6100    0.1210 h1        1 MOL      0.148811
    172 H81        -8.9660    2.5820   -0.8880 hn        1 MOL      0.251051
    173 Ca1         2.6610    0.0520   -0.6320 Ca        1 MOL      1.673132
    174 O23         0.5580   -0.7900   -2.1920 oh        1 MOL     -0.761843
    175 H82        -0.2770   -0.3440   -2.0900 ho        1 MOL      0.365889
    176 H83         0.7210   -0.8090   -3.1370 ho        1 MOL      0.365889
    177 O24         1.2500    2.2320   -1.6000 oh        1 MOL     -0.761843
    178 H84         0.3130    2.3000   -1.4000 ho        1 MOL      0.365889
    179 H85         1.3210    2.4820   -2.5190 ho        1 MOL      0.365889
    180 O25         2.8860    0.8320   -3.2730 oh        1 MOL     -0.761843
    181 H86         3.5760    0.6350   -3.9040 ho        1 MOL      0.365889
    182 H87         2.1410    1.1300   -3.7990 ho        1 MOL      0.365889
@<TRIPOS>BOND
     1    1    2 1   
     2    1    4 1   
     3    1    5 1   
     4    1    6 1   
     5    2    3 2   
     6    2    7 1   
     7    7    8 1   
     8    7   15 1   
     9    8    9 1   
    10    8   11 1   
    11    8   16 1   
    12    9   10 2   
    13    9   19 1   
    14   11   12 1   
    15   11   17 1   
    16   11   18 1   
    17   12   13 1   
    18   12   14 1   
    19   19   20 1   
    20   19   28 1   
    21   20   21 1   
    22   20   23 1   
    23   20   29 1   
    24   21   22 2   
    25   21   41 1   
    26   23   24 1   
    27   23   30 1   
    28   23   31 1   
    29   24   25 1   
    30   24   32 1   
    31   24   33 1   
    32   25   26 1   
    33   25   34 1   
    34   25   35 1   
    35   26   27 1   
    36   26   36 1   
    37   26   37 1   
    38   27   38 1   
    39   27   39 1   
    40   27   40 1   
    41   41   42 1   
    42   41   49 1   
    43   42   43 1   
    44   42   45 1   
    45   42   50 1   
    46   43   44 2   
    47   43   53 1   
    48   45   46 1   
    49   45   51 1   
    50   45   52 1   
    51   46   47 1   
    52   46   48 1   
    53   53   54 1   
    54   53   57 1   
    55   54   55 1   
    56   54   58 1   
    57   54   59 1   
    58   55   56 2   
    59   55   60 1   
    60   60   61 1   
    61   60   68 1   
    62   61   62 1   
    63   61   64 1   
    64   61   69 1   
    65   62   63 2   
    66   62   74 1   
    67   64   65 1   
    68   64   70 1   
    69   64   71 1   
    70   65   66 1   
    71   65   67 2   
    72   66   72 1   
    73   66   73 1   
    74   74   75 1   
    75   74   78 1   
    76   75   76 1   
    77   75   79 1   
    78   75   80 1   
    79   76   77 2   
    80   76   81 1   
    81   81   82 1   
    82   81   93 1   
    83   82   83 1   
    84   82   85 1   
    85   82   94 1   
    86   83   84 2   
    87   83  102 1   
    88   85   86 1   
    89   85   95 1   
    90   85   96 1   
    91   86   87 ar  
    92   86   88 ar  
    93   87   89 ar  
    94   87   97 1   
    95   88   90 ar  
    96   88   98 1   
    97   89   91 ar  
    98   89   99 1   
    99   90   91 ar  
   100   90  100 1   
   101   91   92 1   
   102   92  101 1   
   103  102  103 1   
   104  102  110 1   
   105  103  104 1   
   106  103  106 1   
   107  103  111 1   
   108  104  105 2   
   109  104  121 1   
   110  106  107 1   
   111  106  108 1   
   112  106  112 1   
   113  107  109 1   
   114  107  113 1   
   115  107  114 1   
   116  108  115 1   
   117  108  116 1   
   118  108  117 1   
   119  109  118 1   
   120  109  119 1   
   121  109  120 1   
   122  121  122 1   
   123  121  127 1   
   124  122  123 1   
   125  122  125 1   
   126  122  128 1   
   127  123  124 2   
   128  123  132 1   
   129  125  126 1   
   130  125  129 1   
   131  125  130 1   
   132  126  131 1   
   133  132  133 1   
   134  132  137 1   
   135  133  134 1   
   136  133  136 1   
   137  133  138 1   
   138  134  135 2   
   139  134  142 1   
   140  136  139 1   
   141  136  140 1   
   142  136  141 1   
   143  142  143 1   
   144  142  147 1   
   145  143  144 1   
   146  143  146 1   
   147  143  148 1   
   148  144  145 2   
   149  144  152 1   
   150  146  149 1   
   151  146  150 1   
   152  146  151 1   
   153  152  153 1   
   154  152  161 1   
   155  153  154 1   
   156  153  156 1   
   157  153  162 1   
   158  154  155 2   
   159  154  167 1   
   160  156  157 1   
   161  156  163 1   
   162  156  164 1   
   163  157  158 1   
   164  157  165 1   
   165  157  166 1   
   166  158  159 1   
   167  158  160 1   
   168  167  168 1   
   169  167  172 1   
   170  168  169 1   
   171  168  170 1   
   172  168  171 1   
   173  174  175 1   
   174  174  176 1   
   175  177  178 1   
   176  177  179 1   
   177  180  181 1   
   178  180  182 1   
@<TRIPOS>SUBSTRUCTURE
     1 MOL         1 TEMP              0 ****  ****    0 ROOT
