@<TRIPOS>MOLECULE
MOL
  192   187     1     0     0
SMALL
resp


@<TRIPOS>ATOM
      1 C1         12.3430    4.5390   -2.9800 c3        1 MOL     -0.488614
      2 C2         12.1530    3.2860   -2.1840 c         1 MOL      0.680313
      3 O1         12.9990    2.4090   -2.1370 o         1 MOL     -0.553869
      4 H1         12.1130    4.3420   -4.0260 hc        1 MOL      0.131878
      5 H2         11.6770    5.3140   -2.6010 hc        1 MOL      0.131878
      6 H3         13.3770    4.8720   -2.8920 hc        1 MOL      0.131878
      7 N1         11.0610    3.1970   -1.3680 n         1 MOL     -0.377468
      8 C3         10.6990    1.9920   -0.6650 c3        1 MOL     -0.168109
      9 C4          9.1940    1.6770   -0.9160 c         1 MOL      0.759577
     10 O2          8.3850    2.6030   -1.0410 o         1 MOL     -0.697316
     11 C5         10.9570    2.0450    0.8340 c3        1 MOL      0.012518
     12 C6         10.4680    3.3490    1.5290 c         1 MOL      0.645572
     13 O3         10.4000    3.3050    2.7600 o         1 MOL     -0.687454
     14 O4          9.9760    4.3010    0.9070 o         1 MOL     -0.687454
     15 H4         10.4960    4.0280   -1.2580 hn        1 MOL      0.191165
     16 H5         11.2970    1.1260   -0.9700 h1        1 MOL      0.062171
     17 H6         12.0360    2.1240    0.9500 hc        1 MOL      0.039894
     18 H7         10.4980    1.1690    1.2860 hc        1 MOL      0.039894
     19 N2          8.8310    0.3930   -1.0790 n         1 MOL     -0.610218
     20 C7          7.4750   -0.0450   -1.3600 c3        1 MOL      0.055831
     21 C8          6.6680    0.0420   -0.0950 c         1 MOL      0.840911
     22 O5          7.1210   -0.3160    1.0270 o         1 MOL     -0.566923
     23 C9          7.4500   -1.4390   -2.0060 c3        1 MOL     -0.307359
     24 C10         7.8770   -2.6730   -1.2000 c3        1 MOL     -0.001897
     25 C11         8.3000   -3.8650   -2.1750 c3        1 MOL      0.232823
     26 C12         7.3020   -4.1130   -3.3680 c3        1 MOL     -0.018048
     27 N3          8.0230   -4.9870   -4.3540 n4        1 MOL     -0.309820
     28 H8          9.5470   -0.3110   -0.9710 hn        1 MOL      0.340960
     29 H9          7.1300    0.6790   -2.1080 h1        1 MOL      0.127003
     30 H10         8.0570   -1.4640   -2.9080 hc        1 MOL      0.062421
     31 H11         6.3910   -1.5680   -2.2260 hc        1 MOL      0.062421
     32 H12         7.0040   -2.9740   -0.6280 hc        1 MOL      0.033218
     33 H13         8.6430   -2.4770   -0.4540 hc        1 MOL      0.033218
     34 H14         8.4170   -4.6990   -1.4890 hc        1 MOL     -0.028539
     35 H15         9.3290   -3.7280   -2.4960 hc        1 MOL     -0.028539
     36 H16         7.0240   -3.2450   -3.9690 hx        1 MOL      0.084551
     37 H17         6.4500   -4.6320   -2.9380 hx        1 MOL      0.084551
     38 H18         8.2610   -5.8930   -3.9750 hn        1 MOL      0.260720
     39 H19         7.3300   -5.2290   -5.0500 hn        1 MOL      0.260720
     40 H20         8.8120   -4.5340   -4.7820 hn        1 MOL      0.260720
     41 N4          5.3930    0.4680   -0.1800 n         1 MOL     -0.675740
     42 C13         4.4810    0.5400    0.8990 c3        1 MOL      0.104523
     43 C14         3.0740    0.4350    0.3860 c         1 MOL      0.568095
     44 O6          2.7350    0.8400   -0.7050 o         1 MOL     -0.528331
     45 C15         4.6030    1.9340    1.5970 c3        1 MOL      0.088830
     46 C16         5.6750    2.8660    1.0590 c         1 MOL      0.661210
     47 O7          5.7000    3.2800   -0.1280 o         1 MOL     -0.768957
     48 O8          6.5000    3.3230    1.8700 o         1 MOL     -0.768957
     49 H21         5.0700    0.8040   -1.0770 hn        1 MOL      0.280626
     50 H22         4.6620   -0.2770    1.5980 h1        1 MOL      0.075911
     51 H23         4.6750    1.7390    2.6640 hc        1 MOL     -0.000312
     52 H24         3.6990    2.5300    1.5080 hc        1 MOL     -0.000312
     53 N5          2.0690    0.0980    1.2410 n         1 MOL     -0.486881
     54 C17         2.3340   -0.3860    2.5680 c3        1 MOL     -0.023359
     55 C18         2.7420   -1.8930    2.6720 c         1 MOL      0.592515
     56 O9          3.2800   -2.4720    1.6740 o         1 MOL     -0.607264
     57 H25         1.1070    0.0540    0.9430 hn        1 MOL      0.353662
     58 H26         1.5300   -0.3010    3.3000 h1        1 MOL      0.050720
     59 H27         3.1430    0.2460    2.9300 h1        1 MOL      0.050720
     60 N6          2.5230   -2.5680    3.8160 n         1 MOL     -0.441566
     61 C19         2.8990   -3.9870    3.9060 c3        1 MOL      0.155511
     62 C20         2.0390   -4.8600    2.9670 c         1 MOL      0.292290
     63 O10         0.8170   -5.0660    3.1170 o         1 MOL     -0.456626
     64 C21         2.7060   -4.4050    5.3540 c3        1 MOL     -0.461704
     65 C22         2.3860   -5.9190    5.5880 c         1 MOL      0.788061
     66 O11         3.0270   -6.7480    4.8790 o         1 MOL     -0.650991
     67 O12         1.6180   -6.2680    6.5160 o         1 MOL     -0.650991
     68 H28         2.2470   -2.0800    4.6520 hn        1 MOL      0.290664
     69 H29         3.9400   -4.1680    3.6340 h1        1 MOL      0.060775
     70 H30         1.9010   -3.7980    5.7680 hc        1 MOL      0.120081
     71 H31         3.6250   -4.1460    5.8620 hc        1 MOL      0.120081
     72 N7          2.6440   -5.5570    2.0130 n         1 MOL     -0.121083
     73 C23         2.0380   -6.4380    1.0060 c3        1 MOL     -0.161686
     74 C24         1.3560   -5.6730   -0.1050 c         1 MOL      0.606524
     75 O13         0.8340   -6.3820   -0.9640 o         1 MOL     -0.565299
     76 H32         3.6450   -5.4840    1.8870 hn        1 MOL      0.199399
     77 H33         1.2460   -6.9790    1.5130 h1        1 MOL      0.102258
     78 H34         2.8020   -7.1060    0.5880 h1        1 MOL      0.102258
     79 N8          1.3490   -4.3310   -0.1810 n         1 MOL     -0.376701
     80 C25         0.8430   -3.6230   -1.3520 c3        1 MOL      0.210604
     81 C26         0.2720   -2.2520   -1.0090 c         1 MOL      0.172141
     82 O14         0.2070   -1.7490    0.0880 o         1 MOL     -0.345729
     83 C27         1.9770   -3.4950   -2.4080 c3        1 MOL      0.009537
     84 C28         3.2390   -2.9930   -1.6810 c3        1 MOL     -0.121710
     85 O15         2.2690   -4.7320   -3.1410 oh        1 MOL     -0.572704
     86 H35         1.8200   -3.8710    0.5840 hn        1 MOL      0.187585
     87 H36        -0.0240   -4.1650   -1.7440 h1        1 MOL      0.088707
     88 H37         1.6860   -2.7170   -3.1180 h1        1 MOL      0.075109
     89 H38         2.8990   -4.5710   -3.8480 ho        1 MOL      0.361393
     90 H39         3.5690   -3.6630   -0.8790 hc        1 MOL      0.049788
     91 H40         4.1380   -2.9950   -2.2860 hc        1 MOL      0.049788
     92 H41         3.0640   -1.9340   -1.5040 hc        1 MOL      0.049788
     93 N9         -0.4540   -1.6840   -2.0320 n         1 MOL     -0.194396
     94 C29        -0.8700   -0.2250   -1.9900 c3        1 MOL     -0.085991
     95 C30        -2.1860   -0.1230   -1.2060 c         1 MOL      0.509634
     96 O16        -2.4420    0.7420   -0.4470 o         1 MOL     -0.485541
     97 C31        -0.8630    0.3800   -3.3500 c3        1 MOL      0.246996
     98 C32         0.6310    0.1430   -3.9400 c3        1 MOL     -0.034651
     99 C33        -1.2870    1.8600   -3.1980 c3        1 MOL     -0.283595
    100 C34         1.0220    0.6300   -5.3400 c3        1 MOL     -0.349549
    101 H42        -0.5570   -2.1860   -2.8980 hn        1 MOL      0.193837
    102 H43        -0.0950    0.3260   -1.4750 h1        1 MOL      0.064011
    103 H44        -1.5180   -0.1980   -3.9910 hc        1 MOL     -0.042500
    104 H45         0.9590   -0.8910   -3.7880 hc        1 MOL      0.040742
    105 H46         1.2780    0.6890   -3.2470 hc        1 MOL      0.040742
    106 H47        -2.3540    1.8630   -2.9790 hc        1 MOL      0.082112
    107 H48        -0.7360    2.3090   -2.3750 hc        1 MOL      0.082112
    108 H49        -1.1620    2.3780   -4.1460 hc        1 MOL      0.082112
    109 H50         0.2810    0.3600   -6.0960 hc        1 MOL      0.086441
    110 H51         1.0090    1.7190   -5.3570 hc        1 MOL      0.086441
    111 H52         1.9870    0.1430   -5.4830 hc        1 MOL      0.086441
    112 N10        -3.0310   -1.1780   -1.3080 n         1 MOL     -0.475712
    113 C35        -4.3130   -1.2710   -0.5220 c3        1 MOL      0.075453
    114 C36        -5.4420   -1.9410   -1.3510 c         1 MOL      0.530019
    115 O17        -5.1910   -2.7280   -2.2510 o         1 MOL     -0.527816
    116 C37        -4.2110   -1.9630    0.8680 c3        1 MOL      0.322760
    117 C38        -3.5910   -3.3880    0.7760 c3        1 MOL     -0.514217
    118 O18        -3.2140   -1.2540    1.6550 oh        1 MOL     -0.596127
    119 H53        -2.9750   -1.9920   -1.8990 hn        1 MOL      0.246775
    120 H54        -4.6880   -0.2610   -0.3130 h1        1 MOL      0.079782
    121 H55        -5.1470   -1.9400    1.4220 h1        1 MOL      0.042794
    122 H56        -2.4440   -1.8220    1.7650 ho        1 MOL      0.387806
    123 H57        -4.0900   -4.0620    0.0840 hc        1 MOL      0.141844
    124 H58        -2.5390   -3.3700    0.5310 hc        1 MOL      0.141844
    125 H59        -3.6260   -3.7020    1.8190 hc        1 MOL      0.141844
    126 N11        -6.6920   -1.6840   -0.9970 n         1 MOL     -0.535989
    127 C39        -7.8020   -2.3300   -1.7420 c3        1 MOL      0.023535
    128 C40        -8.9190   -1.3050   -1.7870 c         1 MOL      0.592243
    129 O19        -9.4270   -0.9540   -2.8590 o         1 MOL     -0.560791
    130 C41        -8.2460   -3.6650   -1.0770 c3        1 MOL      0.180366
    131 C42        -9.4250   -4.3000   -1.7660 c3        1 MOL     -0.375950
    132 O20        -8.6040   -3.5250    0.2510 oh        1 MOL     -0.572592
    133 H60        -6.8960   -1.0520   -0.2380 hn        1 MOL      0.271390
    134 H61        -7.6490   -2.4760   -2.8050 h1        1 MOL      0.123353
    135 H62        -7.5250   -4.4750   -1.1950 h1        1 MOL      0.083055
    136 H63        -8.0670   -4.0860    0.8220 ho        1 MOL      0.396748
    137 H64       -10.2570   -3.5910   -1.7450 hc        1 MOL      0.104488
    138 H65        -9.0740   -4.5690   -2.7560 hc        1 MOL      0.104488
    139 H66        -9.9440   -5.1260   -1.2910 hc        1 MOL      0.104488
    140 N12        -9.1940   -0.6780   -0.6130 n         1 MOL     -0.355070
    141 C43       -10.1860    0.3580   -0.4990 c3        1 MOL     -0.016114
    142 C44        -9.9120    1.3680    0.5790 c         1 MOL      0.472927
    143 O21        -9.3650    0.9700    1.6530 o         1 MOL     -0.459415
    144 C45       -11.5420   -0.2390   -0.3170 c3        1 MOL     -0.108572
    145 C46       -12.7560    0.6630   -0.6920 c3        1 MOL      0.048124
    146 C47       -14.1770    0.0320   -0.5920 c3        1 MOL     -0.077998
    147 C48       -15.2570    1.0780   -1.1860 c3        1 MOL      0.024510
    148 N13       -16.7000    0.6350   -1.2090 n4        1 MOL     -0.132275
    149 H67        -8.8000   -1.0000    0.2670 hn        1 MOL      0.241706
    150 H68       -10.1740    1.0410   -1.3610 h1        1 MOL      0.080492
    151 H69       -11.5780   -0.5380    0.7360 hc        1 MOL      0.066562
    152 H70       -11.6180   -1.1480   -0.9090 hc        1 MOL      0.066562
    153 H71       -12.5520    0.9760   -1.7090 hc        1 MOL      0.007032
    154 H72       -12.7520    1.5380   -0.0520 hc        1 MOL      0.007032
    155 H73       -14.4350   -0.2050    0.4370 hc        1 MOL      0.041412
    156 H74       -14.1550   -0.9460   -1.0960 hc        1 MOL      0.041412
    157 H75       -14.9550    1.4270   -2.1740 hx        1 MOL      0.071505
    158 H76       -15.1700    1.9270   -0.5050 hx        1 MOL      0.071505
    159 H77       -16.7950   -0.1330   -1.8570 hn        1 MOL      0.226476
    160 H78       -16.9000    0.2290   -0.3070 hn        1 MOL      0.226476
    161 H79       -17.3680    1.3310   -1.5010 hn        1 MOL      0.226476
    162 N14       -10.2720    2.6690    0.4400 n         1 MOL     -0.440105
    163 C49       -10.0050    3.5570    1.6300 c3        1 MOL      0.307609
    164 C50        -8.5040    3.6090    1.9930 c         1 MOL      0.330270
    165 O22        -8.1770    3.2430    3.1190 o         1 MOL     -0.513292
    166 C51       -10.5400    4.9670    1.3410 c3        1 MOL     -0.002204
    167 C52       -12.0040    5.1030    1.5980 c3        1 MOL     -0.333059
    168 C53       -12.5120    6.4330    0.9620 c         1 MOL      0.677464
    169 O23       -13.2840    6.4650   -0.0600 o         1 MOL     -0.656527
    170 O24       -12.0890    7.5400    1.3780 o         1 MOL     -0.656527
    171 H80       -10.7980    3.0820   -0.3320 hn        1 MOL      0.248256
    172 H81       -10.4780    3.1490    2.5130 h1        1 MOL      0.008271
    173 H82       -10.3730    5.1750    0.2840 hc        1 MOL      0.060954
    174 H83        -9.9770    5.7120    1.8980 hc        1 MOL      0.060954
    175 H84       -12.2070    5.1200    2.6710 hc        1 MOL      0.058789
    176 H85       -12.6440    4.3500    1.1480 hc        1 MOL      0.058789
    177 N15        -7.6040    3.9100    1.0770 n         1 MOL     -0.381487
    178 C54        -7.7530    4.4480   -0.3620 c3        1 MOL     -0.048872
    179 H86        -7.6760    3.6210   -1.0680 h1        1 MOL      0.057106
    180 H87        -8.7240    4.9300   -0.4730 h1        1 MOL      0.057106
    181 H88        -6.9620    5.1710   -0.5640 h1        1 MOL      0.057106
    182 H89        -6.6690    3.7450    1.4160 hn        1 MOL      0.304385
    183 Ca1         7.6050    4.9280    0.2910 Ca        1 MOL      1.798858
    184 O25         8.8940    7.0340   -0.2500 oh        1 MOL     -0.906049
    185 H90         9.3150    7.5720    0.4150 ho        1 MOL      0.444138
    186 H91         8.7370    7.6270   -0.9780 ho        1 MOL      0.444138
    187 O26         6.1030    6.5010    1.7190 oh        1 MOL     -0.906049
    188 H92         6.2990    6.5850    2.6590 ho        1 MOL      0.444138
    189 H93         5.2000    6.7990    1.6440 ho        1 MOL      0.444138
    190 O27         8.7040    5.5830    3.0650 oh        1 MOL     -0.906049
    191 H94         9.3070    4.9870    2.6170 ho        1 MOL      0.444138
    192 H95         9.0700    5.6830    3.9370 ho        1 MOL      0.444138
@<TRIPOS>BOND
     1    1    2 1   
     2    1    4 1   
     3    1    5 1   
     4    1    6 1   
     5    2    3 2   
     6    2    7 1   
     7    7    8 1   
     8    7   15 1   
     9    8    9 1   
    10    8   11 1   
    11    8   16 1   
    12    9   10 2   
    13    9   19 1   
    14   11   12 1   
    15   11   17 1   
    16   11   18 1   
    17   12   13 1   
    18   12   14 1   
    19   19   20 1   
    20   19   28 1   
    21   20   21 1   
    22   20   23 1   
    23   20   29 1   
    24   21   22 2   
    25   21   41 1   
    26   23   24 1   
    27   23   30 1   
    28   23   31 1   
    29   24   25 1   
    30   24   32 1   
    31   24   33 1   
    32   25   26 1   
    33   25   34 1   
    34   25   35 1   
    35   26   27 1   
    36   26   36 1   
    37   26   37 1   
    38   27   38 1   
    39   27   39 1   
    40   27   40 1   
    41   41   42 1   
    42   41   49 1   
    43   42   43 1   
    44   42   45 1   
    45   42   50 1   
    46   43   44 2   
    47   43   53 1   
    48   45   46 1   
    49   45   51 1   
    50   45   52 1   
    51   46   47 1   
    52   46   48 1   
    53   53   54 1   
    54   53   57 1   
    55   54   55 1   
    56   54   58 1   
    57   54   59 1   
    58   55   56 2   
    59   55   60 1   
    60   60   61 1   
    61   60   68 1   
    62   61   62 1   
    63   61   64 1   
    64   61   69 1   
    65   62   63 2   
    66   62   72 1   
    67   64   65 1   
    68   64   70 1   
    69   64   71 1   
    70   65   66 1   
    71   65   67 1   
    72   72   73 1   
    73   72   76 1   
    74   73   74 1   
    75   73   77 1   
    76   73   78 1   
    77   74   75 2   
    78   74   79 1   
    79   79   80 1   
    80   79   86 1   
    81   80   81 1   
    82   80   83 1   
    83   80   87 1   
    84   81   82 2   
    85   81   93 1   
    86   83   84 1   
    87   83   85 1   
    88   83   88 1   
    89   84   90 1   
    90   84   91 1   
    91   84   92 1   
    92   85   89 1   
    93   93   94 1   
    94   93  101 1   
    95   94   95 1   
    96   94   97 1   
    97   94  102 1   
    98   95   96 2   
    99   95  112 1   
   100   97   98 1   
   101   97   99 1   
   102   97  103 1   
   103   98  100 1   
   104   98  104 1   
   105   98  105 1   
   106   99  106 1   
   107   99  107 1   
   108   99  108 1   
   109  100  109 1   
   110  100  110 1   
   111  100  111 1   
   112  112  113 1   
   113  112  119 1   
   114  113  114 1   
   115  113  116 1   
   116  113  120 1   
   117  114  115 2   
   118  114  126 1   
   119  116  117 1   
   120  116  118 1   
   121  116  121 1   
   122  117  123 1   
   123  117  124 1   
   124  117  125 1   
   125  118  122 1   
   126  126  127 1   
   127  126  133 1   
   128  127  128 1   
   129  127  130 1   
   130  127  134 1   
   131  128  129 2   
   132  128  140 1   
   133  130  131 1   
   134  130  132 1   
   135  130  135 1   
   136  131  137 1   
   137  131  138 1   
   138  131  139 1   
   139  132  136 1   
   140  140  141 1   
   141  140  149 1   
   142  141  142 1   
   143  141  144 1   
   144  141  150 1   
   145  142  143 2   
   146  142  162 1   
   147  144  145 1   
   148  144  151 1   
   149  144  152 1   
   150  145  146 1   
   151  145  153 1   
   152  145  154 1   
   153  146  147 1   
   154  146  155 1   
   155  146  156 1   
   156  147  148 1   
   157  147  157 1   
   158  147  158 1   
   159  148  159 1   
   160  148  160 1   
   161  148  161 1   
   162  162  163 1   
   163  162  171 1   
   164  163  164 1   
   165  163  166 1   
   166  163  172 1   
   167  164  165 2   
   168  164  177 1   
   169  166  167 1   
   170  166  173 1   
   171  166  174 1   
   172  167  168 1   
   173  167  175 1   
   174  167  176 1   
   175  168  169 1   
   176  168  170 1   
   177  177  178 1   
   178  177  182 1   
   179  178  179 1   
   180  178  180 1   
   181  178  181 1   
   182  184  185 1   
   183  184  186 1   
   184  187  188 1   
   185  187  189 1   
   186  190  191 1   
   187  190  192 1   
@<TRIPOS>SUBSTRUCTURE
     1 MOL         1 TEMP              0 ****  ****    0 ROOT
