@<TRIPOS>MOLECULE
MOL
  192   187     1     0     0
SMALL
resp


@<TRIPOS>ATOM
      1 C1          6.2170   -5.6930   -2.2420 c3        1 MOL     -0.278289
      2 C2          5.5120   -4.4670   -1.4800 c         1 MOL      0.747869
      3 O1          4.7980   -4.7860   -0.5620 o         1 MOL     -0.594709
      4 H1          7.2860   -5.4990   -2.3290 hc        1 MOL      0.070263
      5 H2          6.0600   -6.6110   -1.6780 hc        1 MOL      0.070263
      6 H3          5.7860   -5.7990   -3.2380 hc        1 MOL      0.070263
      7 N1          5.7220   -3.2320   -1.8760 n         1 MOL     -0.563613
      8 C3          5.3200   -1.9300   -1.2460 c3        1 MOL      0.103520
      9 C4          3.8260   -1.7090   -1.2350 c         1 MOL      0.089362
     10 O2          3.3530   -0.5990   -0.8860 o         1 MOL     -0.310344
     11 C5          6.0820   -0.7270   -1.7650 c3        1 MOL     -0.028408
     12 C6          6.2250   -0.7950   -3.2850 c         1 MOL      0.631256
     13 O3          7.2270   -1.4210   -3.7470 o         1 MOL     -0.687266
     14 O4          5.3140   -0.3270   -4.0250 o         1 MOL     -0.687266
     15 H4          6.4040   -3.2480   -2.6220 hn        1 MOL      0.298950
     16 H5          5.4950   -2.0210   -0.1750 h1        1 MOL      0.112569
     17 H6          7.0610   -0.6260   -1.2870 hc        1 MOL      0.011710
     18 H7          5.5410    0.1640   -1.4520 hc        1 MOL      0.011710
     19 N2          3.0160   -2.7940   -1.3500 n         1 MOL      0.011802
     20 C7          1.5410   -2.7910   -1.4110 c3        1 MOL      0.028285
     21 C8          0.5700   -3.2460   -0.2210 c         1 MOL      0.469171
     22 O5          0.7660   -4.2850    0.4480 o         1 MOL     -0.517122
     23 C9          1.1790   -3.5090   -2.6710 c3        1 MOL     -0.436497
     24 C10         1.7270   -3.0330   -3.9650 c3        1 MOL      0.040719
     25 C11         1.3820   -1.5460   -4.2860 c3        1 MOL      0.176863
     26 C12         1.8280   -1.2780   -5.7540 c3        1 MOL     -0.064068
     27 N3          3.3050   -1.4330   -5.9050 n4        1 MOL     -0.200664
     28 H8          3.4810   -3.6900   -1.3480 hn        1 MOL      0.180579
     29 H9          1.1980   -1.7860   -1.6750 h1        1 MOL     -0.069381
     30 H10         0.1030   -3.5290   -2.8520 hc        1 MOL      0.163072
     31 H11         1.4350   -4.5470   -2.4770 hc        1 MOL      0.163072
     32 H12         1.3370   -3.6590   -4.7670 hc        1 MOL     -0.007430
     33 H13         2.8100   -3.1800   -3.9130 hc        1 MOL     -0.007430
     34 H14         1.8760   -0.8190   -3.6360 hc        1 MOL      0.009047
     35 H15         0.3050   -1.3730   -4.1960 hc        1 MOL      0.009047
     36 H16         1.5780   -0.2400   -5.9410 hx        1 MOL      0.085145
     37 H17         1.3000   -1.9540   -6.4240 hx        1 MOL      0.085145
     38 H18         3.8350   -1.0280   -5.1570 hn        1 MOL      0.268045
     39 H19         3.4740   -2.4260   -5.8510 hn        1 MOL      0.268045
     40 H20         3.7420   -1.1200   -6.7620 hn        1 MOL      0.268045
     41 N4         -0.5040   -2.5630    0.2330 n         1 MOL     -0.276974
     42 C13        -1.0040   -1.2140   -0.1760 c3        1 MOL     -0.128618
     43 C14        -1.1390   -0.8630   -1.6340 c         1 MOL      0.363186
     44 O6         -0.5790    0.1020   -2.1490 o         1 MOL     -0.442304
     45 C15        -0.2440   -0.2390    0.6650 c3        1 MOL     -0.326534
     46 C16        -0.6110   -0.4440    2.1390 c         1 MOL      0.444611
     47 O7         -1.3870   -1.3410    2.5790 o         1 MOL     -0.670651
     48 O8         -0.0780    0.3430    2.9690 o         1 MOL     -0.670651
     49 H21        -1.0170   -3.0430    0.9600 hn        1 MOL      0.208502
     50 H22        -2.0490   -1.0940    0.1270 h1        1 MOL      0.176227
     51 H23        -0.5780    0.7730    0.4370 hc        1 MOL      0.237986
     52 H24         0.8310   -0.3470    0.5060 hc        1 MOL      0.237986
     53 N5         -2.0070   -1.5560   -2.3220 n         1 MOL     -0.286057
     54 C17        -2.9420   -2.5570   -1.9050 c3        1 MOL     -0.185281
     55 C18        -3.9960   -2.7590   -3.0530 c         1 MOL      0.666537
     56 O9         -3.7680   -2.3680   -4.1810 o         1 MOL     -0.572445
     57 H25        -2.3130   -1.1420   -3.1840 hn        1 MOL      0.281044
     58 H26        -3.4310   -1.9990   -1.1000 h1        1 MOL      0.112506
     59 H27        -2.4830   -3.5130   -1.6760 h1        1 MOL      0.112506
     60 N6         -5.1880   -3.1690   -2.7260 n         1 MOL     -0.497711
     61 C19        -5.5680   -3.8010   -1.4700 c3        1 MOL      0.025446
     62 C20        -6.5170   -2.9860   -0.5310 c         1 MOL      0.514597
     63 O10        -7.1840   -2.0580   -1.0210 o         1 MOL     -0.456824
     64 C21        -6.1280   -5.2040   -1.7890 c3        1 MOL     -0.185555
     65 C22        -7.2390   -5.3230   -2.8150 c         1 MOL      0.691317
     66 O11        -8.0420   -6.2990   -2.7300 o         1 MOL     -0.641991
     67 O12        -7.3210   -4.6820   -3.9120 o         1 MOL     -0.641991
     68 H28        -5.8020   -3.2550   -3.5210 hn        1 MOL      0.316817
     69 H29        -4.7080   -4.0050   -0.8440 h1        1 MOL      0.020827
     70 H30        -6.3850   -5.6980   -0.8520 hc        1 MOL      0.035632
     71 H31        -5.2610   -5.7450   -2.1630 hc        1 MOL      0.035632
     72 N7         -6.6440   -3.3460    0.7390 n         1 MOL     -0.329990
     73 C23        -7.4670   -2.5380    1.6310 c3        1 MOL     -0.280076
     74 C24        -7.0980   -1.0100    1.7630 c         1 MOL      0.509357
     75 O13        -7.9720   -0.2220    2.1800 o         1 MOL     -0.526530
     76 H32        -6.0670   -4.0460    1.1860 hn        1 MOL      0.281832
     77 H33        -7.4690   -3.0290    2.6020 h1        1 MOL      0.152156
     78 H34        -8.5100   -2.6280    1.3250 h1        1 MOL      0.152156
     79 N8         -5.8360   -0.6010    1.4620 n         1 MOL     -0.409989
     80 C25        -5.4760    0.8440    1.4690 c3        1 MOL      0.346463
     81 C26        -4.9210    1.3280    0.0950 c         1 MOL      0.201884
     82 O14        -4.5220    0.6260   -0.8810 o         1 MOL     -0.399273
     83 C27        -4.4260    1.1050    2.5360 c3        1 MOL      0.210703
     84 C28        -4.8720    0.6480    3.8960 c3        1 MOL     -0.133324
     85 O15        -4.0080    2.5070    2.5970 oh        1 MOL     -0.635670
     86 H35        -5.1930   -1.3100    1.1480 hn        1 MOL      0.160912
     87 H36        -6.3640    1.4450    1.6320 h1        1 MOL      0.033396
     88 H37        -3.5470    0.5340    2.2510 h1        1 MOL      0.015482
     89 H38        -3.1310    2.4200    2.9880 ho        1 MOL      0.426891
     90 H39        -5.9270    0.8990    3.9790 hc        1 MOL      0.026462
     91 H40        -4.8490   -0.4360    4.0170 hc        1 MOL      0.026462
     92 H41        -4.3140    1.1880    4.6620 hc        1 MOL      0.026462
     93 N9         -5.0380    2.6620   -0.0640 n         1 MOL     -0.045558
     94 C29        -4.7150    3.3510   -1.3140 c3        1 MOL     -0.435867
     95 C30        -3.4970    4.2270   -1.2170 c         1 MOL      0.761253
     96 O16        -3.0580    4.7840   -2.2450 o         1 MOL     -0.596049
     97 C31        -5.9050    4.2210   -1.8180 c3        1 MOL      0.275731
     98 C32        -6.3210    5.3990   -0.9410 c3        1 MOL     -0.002619
     99 C33        -7.0830    3.2550   -2.0630 c3        1 MOL     -0.213684
    100 C34        -7.4800    6.2060   -1.4650 c3        1 MOL     -0.065927
    101 H42        -5.4430    3.1980    0.6940 hn        1 MOL      0.209467
    102 H43        -4.6000    2.5920   -2.0910 h1        1 MOL      0.181912
    103 H44        -5.5900    4.6720   -2.7590 hc        1 MOL      0.002909
    104 H45        -5.4740    6.0970   -0.9210 hc        1 MOL     -0.004143
    105 H46        -6.6680    5.0680    0.0380 hc        1 MOL     -0.004143
    106 H47        -6.7880    2.5010   -2.7970 hc        1 MOL      0.051897
    107 H48        -7.3140    2.7680   -1.1110 hc        1 MOL      0.051897
    108 H49        -7.9600    3.8080   -2.4120 hc        1 MOL      0.051897
    109 H50        -8.4360    5.7730   -1.1990 hc        1 MOL      0.015232
    110 H51        -7.4390    7.2170   -1.0540 hc        1 MOL      0.015232
    111 H52        -7.4420    6.2170   -2.5610 hc        1 MOL      0.015232
    112 N10        -2.9210    4.3990   -0.0410 n         1 MOL     -0.583527
    113 C35        -1.6200    5.1250    0.1230 c3        1 MOL     -0.060222
    114 C36        -0.5160    4.0240    0.0810 c         1 MOL      0.599430
    115 O17        -0.2720    3.3540    1.0770 o         1 MOL     -0.509294
    116 C37        -1.5250    5.9640    1.4540 c3        1 MOL      0.558432
    117 C38        -2.7310    6.9580    1.6030 c3        1 MOL     -0.327897
    118 O18        -0.4040    6.7320    1.3440 oh        1 MOL     -0.665933
    119 H53        -3.3870    4.1490    0.8180 hn        1 MOL      0.219526
    120 H54        -1.3830    5.7240   -0.7440 h1        1 MOL      0.113317
    121 H55        -1.3590    5.3320    2.3300 h1        1 MOL     -0.071349
    122 H56         0.0930    6.4800    2.1250 ho        1 MOL      0.410170
    123 H57        -3.6230    6.4250    1.9290 hc        1 MOL      0.077070
    124 H58        -2.5410    7.7000    2.3740 hc        1 MOL      0.077070
    125 H59        -2.9600    7.3800    0.6290 hc        1 MOL      0.077070
    126 N11         0.2680    3.9640   -1.0250 n         1 MOL     -0.550432
    127 C39         1.3650    2.9710   -1.1600 c3        1 MOL     -0.008503
    128 C40         2.5950    3.2760   -0.3300 c         1 MOL      0.470212
    129 O19         2.8520    4.4420   -0.0440 o         1 MOL     -0.571007
    130 C41         1.6120    2.6460   -2.6230 c3        1 MOL      0.824864
    131 C42         2.2760    3.6920   -3.4370 c3        1 MOL     -0.369425
    132 O20         0.5190    2.2680   -3.3830 oh        1 MOL     -0.701542
    133 H60         0.1100    4.6220   -1.7760 hn        1 MOL      0.330693
    134 H61         1.0100    2.0200   -0.7620 h1        1 MOL     -0.033225
    135 H62         2.2470    1.7630   -2.6550 h1        1 MOL     -0.160087
    136 H63         0.1160    1.4330   -3.1070 ho        1 MOL      0.355427
    137 H64         2.0960    3.5140   -4.4960 hc        1 MOL      0.066641
    138 H65         1.8660    4.6610   -3.1460 hc        1 MOL      0.066641
    139 H66         3.3360    3.6060   -3.1840 hc        1 MOL      0.066641
    140 N12         3.4480    2.3190    0.0630 n         1 MOL     -0.127145
    141 C43         4.5380    2.4810    1.0700 c3        1 MOL     -0.160324
    142 C44         4.8620    1.2880    1.9640 c         1 MOL      0.687956
    143 O21         5.5400    1.5330    2.9450 o         1 MOL     -0.621770
    144 C45         5.8760    2.8170    0.4060 c3        1 MOL     -0.013724
    145 C46         5.8300    3.8490   -0.7620 c3        1 MOL      0.037599
    146 C47         7.2560    3.9140   -1.3660 c3        1 MOL     -0.117676
    147 C48         7.1660    4.9720   -2.3990 c3        1 MOL      0.198616
    148 N13         8.4590    5.2950   -3.0870 n4        1 MOL     -0.246261
    149 H67         3.4210    1.3550   -0.2290 hn        1 MOL     -0.006636
    150 H68         4.3810    3.4140    1.6160 h1        1 MOL      0.125683
    151 H69         6.3830    1.8970    0.0990 hc        1 MOL      0.025066
    152 H70         6.5550    3.3570    1.0710 hc        1 MOL      0.025066
    153 H71         5.6510    4.8410   -0.3510 hc        1 MOL      0.035279
    154 H72         5.0510    3.6010   -1.4890 hc        1 MOL      0.035279
    155 H73         7.4360    2.9800   -1.9090 hc        1 MOL      0.053647
    156 H74         8.0180    4.2400   -0.6630 hc        1 MOL      0.053647
    157 H75         6.8230    5.8430   -1.8430 hx        1 MOL      0.008528
    158 H76         6.4240    4.7100   -3.1500 hx        1 MOL      0.008528
    159 H77         9.3000    5.4390   -2.5620 hn        1 MOL      0.254843
    160 H78         8.6170    4.6050   -3.8040 hn        1 MOL      0.254843
    161 H79         8.3680    6.1740   -3.5810 hn        1 MOL      0.254843
    162 N14         4.3260    0.0670    1.7850 n         1 MOL     -0.421013
    163 C49         4.4630   -1.0190    2.7660 c3        1 MOL     -0.027822
    164 C50         6.0030   -1.4140    2.9510 c         1 MOL      0.463383
    165 O22         6.7800   -1.6970    2.0210 o         1 MOL     -0.532359
    166 C51         3.5200   -2.0980    2.3530 c3        1 MOL      0.085284
    167 C52         3.4240   -3.2740    3.3770 c3        1 MOL     -0.277764
    168 C53         3.1600   -2.8210    4.7870 c         1 MOL      0.695211
    169 O23         4.1190   -2.7820    5.5940 o         1 MOL     -0.741953
    170 O24         2.0700   -2.3390    5.0020 o         1 MOL     -0.741953
    171 H80         3.8700   -0.1470    0.9040 hn        1 MOL      0.228824
    172 H81         4.1600   -0.6930    3.7610 h1        1 MOL      0.086495
    173 H82         3.9040   -2.4610    1.4030 hc        1 MOL     -0.003300
    174 H83         2.5070   -1.7370    2.1750 hc        1 MOL     -0.003300
    175 H84         4.3780   -3.8070    3.3350 hc        1 MOL      0.083409
    176 H85         2.5350   -3.8470    3.0960 hc        1 MOL      0.083409
    177 N15         6.3890   -1.5940    4.1600 n         1 MOL     -0.190739
    178 C54         7.6960   -2.0550    4.6220 c3        1 MOL     -0.175707
    179 H86         7.7420   -1.9840    5.7090 h1        1 MOL      0.089814
    180 H87         7.8440   -3.0920    4.3190 h1        1 MOL      0.089814
    181 H88         8.4760   -1.4320    4.1840 h1        1 MOL      0.089814
    182 H89         5.7160   -1.3870    4.8880 hn        1 MOL      0.297465
    183 Ca1        -0.3850   -1.6670    4.9130 Ca        1 MOL      1.740980
    184 O25         0.4540    0.6470    6.3670 oh        1 MOL     -0.859216
    185 H90         1.1790    1.1960    6.0600 ho        1 MOL      0.430578
    186 H91         0.1670    1.0470    7.1850 ho        1 MOL      0.430578
    187 O26        -2.4410   -0.1340    5.9450 oh        1 MOL     -0.859216
    188 H92        -2.9350   -0.3050    6.7490 ho        1 MOL      0.430578
    189 H93        -2.2610    0.8110    5.9840 ho        1 MOL      0.430578
    190 O27        -3.0660   -2.7000    5.0170 oh        1 MOL     -0.859216
    191 H94        -3.8630   -2.1760    5.0800 ho        1 MOL      0.430578
    192 H95        -3.2830   -3.4090    4.4230 ho        1 MOL      0.430578
@<TRIPOS>BOND
     1    1    2 1   
     2    1    4 1   
     3    1    5 1   
     4    1    6 1   
     5    2    3 2   
     6    2    7 1   
     7    7    8 1   
     8    7   15 1   
     9    8    9 1   
    10    8   11 1   
    11    8   16 1   
    12    9   10 2   
    13    9   19 1   
    14   11   12 1   
    15   11   17 1   
    16   11   18 1   
    17   12   13 1   
    18   12   14 1   
    19   19   20 1   
    20   19   28 1   
    21   20   21 1   
    22   20   23 1   
    23   20   29 1   
    24   21   22 2   
    25   21   41 1   
    26   23   24 1   
    27   23   30 1   
    28   23   31 1   
    29   24   25 1   
    30   24   32 1   
    31   24   33 1   
    32   25   26 1   
    33   25   34 1   
    34   25   35 1   
    35   26   27 1   
    36   26   36 1   
    37   26   37 1   
    38   27   38 1   
    39   27   39 1   
    40   27   40 1   
    41   41   42 1   
    42   41   49 1   
    43   42   43 1   
    44   42   45 1   
    45   42   50 1   
    46   43   44 2   
    47   43   53 1   
    48   45   46 1   
    49   45   51 1   
    50   45   52 1   
    51   46   47 1   
    52   46   48 1   
    53   53   54 1   
    54   53   57 1   
    55   54   55 1   
    56   54   58 1   
    57   54   59 1   
    58   55   56 2   
    59   55   60 1   
    60   60   61 1   
    61   60   68 1   
    62   61   62 1   
    63   61   64 1   
    64   61   69 1   
    65   62   63 2   
    66   62   72 1   
    67   64   65 1   
    68   64   70 1   
    69   64   71 1   
    70   65   66 1   
    71   65   67 1   
    72   72   73 1   
    73   72   76 1   
    74   73   74 1   
    75   73   77 1   
    76   73   78 1   
    77   74   75 2   
    78   74   79 1   
    79   79   80 1   
    80   79   86 1   
    81   80   81 1   
    82   80   83 1   
    83   80   87 1   
    84   81   82 2   
    85   81   93 1   
    86   83   84 1   
    87   83   85 1   
    88   83   88 1   
    89   84   90 1   
    90   84   91 1   
    91   84   92 1   
    92   85   89 1   
    93   93   94 1   
    94   93  101 1   
    95   94   95 1   
    96   94   97 1   
    97   94  102 1   
    98   95   96 2   
    99   95  112 1   
   100   97   98 1   
   101   97   99 1   
   102   97  103 1   
   103   98  100 1   
   104   98  104 1   
   105   98  105 1   
   106   99  106 1   
   107   99  107 1   
   108   99  108 1   
   109  100  109 1   
   110  100  110 1   
   111  100  111 1   
   112  112  113 1   
   113  112  119 1   
   114  113  114 1   
   115  113  116 1   
   116  113  120 1   
   117  114  115 2   
   118  114  126 1   
   119  116  117 1   
   120  116  118 1   
   121  116  121 1   
   122  117  123 1   
   123  117  124 1   
   124  117  125 1   
   125  118  122 1   
   126  126  127 1   
   127  126  133 1   
   128  127  128 1   
   129  127  130 1   
   130  127  134 1   
   131  128  129 2   
   132  128  140 1   
   133  130  131 1   
   134  130  132 1   
   135  130  135 1   
   136  131  137 1   
   137  131  138 1   
   138  131  139 1   
   139  132  136 1   
   140  140  141 1   
   141  140  149 1   
   142  141  142 1   
   143  141  144 1   
   144  141  150 1   
   145  142  143 2   
   146  142  162 1   
   147  144  145 1   
   148  144  151 1   
   149  144  152 1   
   150  145  146 1   
   151  145  153 1   
   152  145  154 1   
   153  146  147 1   
   154  146  155 1   
   155  146  156 1   
   156  147  148 1   
   157  147  157 1   
   158  147  158 1   
   159  148  159 1   
   160  148  160 1   
   161  148  161 1   
   162  162  163 1   
   163  162  171 1   
   164  163  164 1   
   165  163  166 1   
   166  163  172 1   
   167  164  165 2   
   168  164  177 1   
   169  166  167 1   
   170  166  173 1   
   171  166  174 1   
   172  167  168 1   
   173  167  175 1   
   174  167  176 1   
   175  168  169 1   
   176  168  170 1   
   177  177  178 1   
   178  177  182 1   
   179  178  179 1   
   180  178  180 1   
   181  178  181 1   
   182  184  185 1   
   183  184  186 1   
   184  187  188 1   
   185  187  189 1   
   186  190  191 1   
   187  190  192 1   
@<TRIPOS>SUBSTRUCTURE
     1 MOL         1 TEMP              0 ****  ****    0 ROOT
