@<TRIPOS>MOLECULE
MOL
  184   179     1     0     0
SMALL
resp


@<TRIPOS>ATOM
      1 C1          6.0140    6.9980    0.6260 c3        1 MOL     -0.394344
      2 C2          6.0020    5.6750    1.4180 c         1 MOL      0.857072
      3 O1          5.3690    5.6230    2.4390 o         1 MOL     -0.642344
      4 H1          4.9900    7.2920    0.3960 hc        1 MOL      0.106771
      5 H2          6.4870    7.7760    1.2250 hc        1 MOL      0.106771
      6 H3          6.5700    6.8630   -0.3010 hc        1 MOL      0.106771
      7 N1          6.7590    4.6530    1.0460 n         1 MOL     -0.732189
      8 C3          7.4100    4.4970   -0.2690 c3        1 MOL      0.142410
      9 C4          8.5290    3.4660   -0.2390 c         1 MOL      0.333973
     10 O2          9.3100    3.4480   -1.1740 o         1 MOL     -0.523774
     11 C5          6.4140    4.0140   -1.3280 c3        1 MOL     -0.357874
     12 C6          5.4830    2.8300   -0.9290 c         1 MOL      0.846937
     13 O3          4.2030    2.9410   -0.8610 o         1 MOL     -0.722806
     14 O4          6.0340    1.7560   -0.6650 o         1 MOL     -0.722806
     15 H4          6.8370    3.8570    1.6540 hn        1 MOL      0.341321
     16 H5          7.8260    5.4420   -0.5970 h1        1 MOL      0.091648
     17 H6          6.9440    3.5850   -2.1830 hc        1 MOL      0.103421
     18 H7          5.6980    4.7820   -1.6390 hc        1 MOL      0.103421
     19 N2          8.6250    2.6150    0.7770 n         1 MOL     -0.072994
     20 C7          9.6830    1.7220    0.9820 c3        1 MOL     -0.026700
     21 C8          9.4960    0.3050    0.4690 c         1 MOL      0.460016
     22 O5         10.4280   -0.4890    0.5520 o         1 MOL     -0.555433
     23 C9         10.2220    1.8340    2.4650 c3        1 MOL     -0.106880
     24 H8          8.0390    2.8370    1.5610 hn        1 MOL      0.163593
     25 H9         10.5470    2.1320    0.4480 h1        1 MOL      0.094978
     26 H10        10.1260    2.8310    2.8880 hc        1 MOL      0.034333
     27 H11         9.7870    1.1200    3.1600 hc        1 MOL      0.034333
     28 H12        11.2810    1.5920    2.5220 hc        1 MOL      0.034333
     29 N3          8.3400   -0.0280   -0.1150 n         1 MOL     -0.244194
     30 C10         8.1830   -1.2910   -0.8670 c3        1 MOL      0.282621
     31 C11         7.6720   -1.1000   -2.2780 c         1 MOL      0.196022
     32 O6          8.0820   -1.9050   -3.1120 o         1 MOL     -0.460886
     33 C12         7.2510   -2.1980   -0.1050 c3        1 MOL     -0.463519
     34 C13         5.9800   -1.4590    0.2720 c         1 MOL      0.790177
     35 O7          5.8820   -1.0980    1.5270 o         1 MOL     -0.720257
     36 O8          5.1360   -0.9940   -0.5420 o         1 MOL     -0.720257
     37 H13         7.6510    0.6680   -0.3360 hn        1 MOL      0.110498
     38 H14         9.1710   -1.7250   -1.0470 h1        1 MOL      0.051663
     39 H15         7.8520   -2.4810    0.7510 hc        1 MOL      0.106486
     40 H16         6.9950   -3.0030   -0.7960 hc        1 MOL      0.106486
     41 N4          6.8540   -0.0660   -2.6200 n         1 MOL     -0.050409
     42 C14         6.2820    0.0450   -3.9930 c3        1 MOL     -0.380249
     43 C15         5.2570   -1.0650   -4.2870 c         1 MOL      0.625367
     44 O9          4.9240   -1.2980   -5.4600 o         1 MOL     -0.546608
     45 H17         6.6100    0.6130   -1.9150 hn        1 MOL      0.188296
     46 H18         7.1380   -0.0750   -4.6580 h1        1 MOL      0.151062
     47 H19         5.7940    1.0090   -4.1150 h1        1 MOL      0.151062
     48 N5          4.6200   -1.6800   -3.2420 n         1 MOL     -0.348955
     49 C16         3.7440   -2.7980   -3.4090 c3        1 MOL      0.200654
     50 C17         2.4060   -2.5870   -2.6330 c         1 MOL      0.302765
     51 O10         1.2420   -2.6850   -3.1760 o         1 MOL     -0.493527
     52 C18         4.2960   -4.1620   -3.0950 c3        1 MOL      0.035355
     53 C19         5.4920   -4.5660   -3.8560 c         1 MOL      0.604633
     54 N6          6.5760   -4.9540   -3.2380 n         1 MOL     -0.813869
     55 O11         5.4780   -4.3690   -5.0380 o         1 MOL     -0.534251
     56 H20         4.8510   -1.4320   -2.2910 hn        1 MOL      0.160391
     57 H21         3.4780   -2.8900   -4.4700 h1        1 MOL      0.020579
     58 H22         3.6150   -4.9880   -3.3290 hc        1 MOL     -0.036969
     59 H23         4.5200   -4.2150   -2.0290 hc        1 MOL     -0.036969
     60 H24         6.5690   -5.0870   -2.2320 hn        1 MOL      0.367998
     61 H25         7.3610   -5.1110   -3.8520 hn        1 MOL      0.367998
     62 N7          2.5720   -2.3960   -1.2860 n         1 MOL     -0.240387
     63 C20         1.5310   -2.6910   -0.2920 c3        1 MOL     -0.123361
     64 C21         1.8090   -2.2290    1.1470 c         1 MOL      0.535334
     65 O12         2.6190   -1.3790    1.3760 o         1 MOL     -0.606802
     66 H26         3.4880   -2.2540   -0.8910 hn        1 MOL      0.296603
     67 H27         1.4070   -3.7720   -0.2800 h1        1 MOL      0.069893
     68 H28         0.6400   -2.1520   -0.5980 h1        1 MOL      0.069893
     69 N8          1.0400   -2.6950    2.1400 n         1 MOL     -0.383091
     70 C22        -0.0980   -3.6390    2.1080 c3        1 MOL      0.012308
     71 C23        -1.4800   -3.1350    2.6570 c         1 MOL      0.234027
     72 O13        -2.4340   -3.8320    2.4390 o         1 MOL     -0.507374
     73 C24         0.2480   -4.9430    2.8400 c3        1 MOL      0.403557
     74 C25         1.3980   -5.6670    2.2150 c3        1 MOL     -0.448703
     75 O14         0.5940   -4.6790    4.1970 oh        1 MOL     -0.611710
     76 H29         1.3210   -2.4180    3.0680 hn        1 MOL      0.299033
     77 H30        -0.3070   -3.9140    1.0740 h1        1 MOL      0.103428
     78 H31        -0.6120   -5.6150    2.8060 h1        1 MOL     -0.005063
     79 H32        -0.0370   -5.2480    4.6450 ho        1 MOL      0.390048
     80 H33         1.4840   -6.6250    2.7230 hc        1 MOL      0.106535
     81 H34         1.3240   -5.7750    1.1340 hc        1 MOL      0.106535
     82 H35         2.3460   -5.1780    2.4000 hc        1 MOL      0.106535
     83 N9         -1.6050   -1.9630    3.2180 n         1 MOL     -0.179055
     84 C26        -2.8380   -1.3510    3.6910 c3        1 MOL     -0.024505
     85 C27        -3.0010    0.0790    3.0640 c         1 MOL      0.515769
     86 O15        -2.7590    1.1240    3.7200 o         1 MOL     -0.530332
     87 C28        -3.0610   -1.3780    5.2070 c3        1 MOL      0.159551
     88 C29        -2.9020   -2.8040    5.7410 c3        1 MOL      0.273559
     89 C30        -4.4620   -0.7920    5.5380 c3        1 MOL     -0.241960
     90 C31        -2.7840   -2.9410    7.2950 c3        1 MOL     -0.211002
     91 H36        -0.7400   -1.4470    3.2670 hn        1 MOL      0.175150
     92 H37        -3.6620   -1.9730    3.3180 h1        1 MOL      0.061013
     93 H38        -2.2570   -0.8590    5.7400 hc        1 MOL     -0.047872
     94 H39        -1.9950   -3.2050    5.2730 hc        1 MOL     -0.079575
     95 H40        -3.7790   -3.3970    5.4720 hc        1 MOL     -0.079575
     96 H41        -5.2220   -1.2140    4.8830 hc        1 MOL      0.062257
     97 H42        -4.7040   -0.9460    6.5820 hc        1 MOL      0.062257
     98 H43        -4.4580    0.2950    5.3950 hc        1 MOL      0.062257
     99 H44        -3.7760   -2.8740    7.7240 hc        1 MOL      0.029362
    100 H45        -2.3350   -3.9230    7.4570 hc        1 MOL      0.029362
    101 H46        -2.0760   -2.2280    7.7160 hc        1 MOL      0.029362
    102 N10        -3.1630    0.2710    1.7570 n         1 MOL     -0.523414
    103 C32        -3.5810   -0.6570    0.6900 c3        1 MOL      0.164031
    104 C33        -4.6870   -0.0450   -0.1600 c         1 MOL      0.317361
    105 O16        -4.4710    0.9080   -0.8630 o         1 MOL     -0.460460
    106 C34        -2.3180   -1.1060   -0.1390 c3        1 MOL     -0.015050
    107 C35        -1.2200   -0.0560   -0.3400 c         1 MOL      0.578950
    108 O17        -0.1230   -0.0300    0.2630 o         1 MOL     -0.609263
    109 O18        -1.4860    0.8550   -1.1640 o         1 MOL     -0.609263
    110 H47        -2.8690    1.1950    1.4570 hn        1 MOL      0.365037
    111 H48        -3.9830   -1.5740    1.1210 h1        1 MOL      0.073160
    112 H49        -2.6330   -1.4730   -1.1070 hc        1 MOL      0.013418
    113 H50        -1.9340   -1.9630    0.4190 hc        1 MOL      0.013418
    114 N11        -5.7850   -0.7580   -0.3390 n         1 MOL     -0.277134
    115 C36        -7.0050   -0.4870   -1.1880 c3        1 MOL      0.349137
    116 C37        -8.3090   -0.6330   -0.2130 c         1 MOL      0.250498
    117 O19        -8.2410   -1.1400    0.8790 o         1 MOL     -0.490878
    118 C38        -7.0360   -1.4520   -2.3660 c3        1 MOL     -0.378531
    119 C39        -7.1920   -2.8960   -1.8930 ca        1 MOL      0.200334
    120 C40        -6.0650   -3.6390   -1.5640 ca        1 MOL     -0.204579
    121 C41        -8.4800   -3.5180   -1.8840 ca        1 MOL     -0.204579
    122 C42        -6.2520   -5.0430   -1.4090 ca        1 MOL     -0.009841
    123 C43        -8.6160   -4.8470   -1.5240 ca        1 MOL     -0.009841
    124 C44        -7.5310   -5.6770   -1.4570 ca        1 MOL     -0.285064
    125 H51        -5.8210   -1.6410    0.1480 hn        1 MOL      0.180613
    126 H52        -6.8470    0.5500   -1.4720 h1        1 MOL      0.046604
    127 H53        -6.1040   -1.3570   -2.9250 hc        1 MOL      0.120223
    128 H54        -7.9220   -1.2570   -2.9830 hc        1 MOL      0.120223
    129 H55        -5.0640   -3.2360   -1.5310 ha        1 MOL      0.107911
    130 H56        -9.3630   -3.0220   -2.2660 ha        1 MOL      0.107911
    131 H57        -5.3780   -5.6740   -1.3280 ha        1 MOL      0.080431
    132 H58        -9.6070   -5.2810   -1.4600 ha        1 MOL      0.080431
    133 H59        -7.6380   -6.7070   -1.1400 ha        1 MOL      0.142865
    134 N12        -9.5220   -0.2230   -0.6620 n         1 MOL     -0.054118
    135 C45        -9.7720    0.5540   -1.8840 c3        1 MOL      0.263737
    136 C46        -8.8690    1.7500   -2.1870 c         1 MOL      0.171441
    137 O20        -8.3430    1.9110   -3.2780 o         1 MOL     -0.528067
    138 C47       -11.2180    1.0820   -1.6730 c3        1 MOL     -0.304493
    139 C48       -11.9040    0.1670   -0.6910 c3        1 MOL      0.032312
    140 C49       -10.7470   -0.3100    0.2430 c3        1 MOL     -0.351039
    141 H60        -9.7780   -0.2370   -2.6300 h1        1 MOL      0.011715
    142 H61       -11.2530    2.1050   -1.3180 hc        1 MOL      0.094052
    143 H62       -11.6230    0.9020   -2.6770 hc        1 MOL      0.094052
    144 H63       -12.6570    0.7570   -0.1560 hc        1 MOL      0.042419
    145 H64       -12.3600   -0.6850   -1.1810 hc        1 MOL      0.042419
    146 H65       -10.5370    0.3370    1.0960 h1        1 MOL      0.155126
    147 H66       -10.8290   -1.3700    0.5050 h1        1 MOL      0.155126
    148 N13        -8.6590    2.6230   -1.2500 n         1 MOL     -0.215596
    149 C50        -7.9370    3.9510   -1.4730 c3        1 MOL      0.330331
    150 C51        -8.9090    5.0370   -2.1320 c         1 MOL      0.285845
    151 O21        -9.8120    5.5650   -1.5020 o         1 MOL     -0.516291
    152 C52        -7.4950    4.3750   -0.0770 c3        1 MOL     -0.030856
    153 C53        -6.3460    3.5560    0.3820 c3        1 MOL     -0.119384
    154 C54        -5.8690    3.8120    1.8420 c         1 MOL      0.666259
    155 O22        -6.1950    4.7640    2.4690 o         1 MOL     -0.699597
    156 O23        -4.9070    3.1640    2.3430 o         1 MOL     -0.699597
    157 H67        -9.1910    2.5810   -0.3920 hn        1 MOL      0.270395
    158 H68        -7.0330    3.7780   -2.0490 h1        1 MOL      0.043683
    159 H69        -8.2970    4.1770    0.6330 hc        1 MOL     -0.018844
    160 H70        -7.2440    5.4320   -0.0090 hc        1 MOL     -0.018844
    161 H71        -5.4970    3.8080   -0.2430 hc        1 MOL      0.009321
    162 H72        -6.5640    2.4930    0.2580 hc        1 MOL      0.009321
    163 N14        -8.7080    5.2960   -3.4740 n         1 MOL     -0.262964
    164 C55        -7.7180    4.8030   -4.4210 c3        1 MOL     -0.145644
    165 H73        -7.3240    3.8500   -4.0690 h1        1 MOL      0.077606
    166 H74        -8.1850    4.6660   -5.3960 h1        1 MOL      0.077606
    167 H75        -6.9040    5.5230   -4.5040 h1        1 MOL      0.077606
    168 H76        -9.3470    6.0200   -3.7980 hn        1 MOL      0.234112
    169 Ca1         4.0700    0.9890    0.7950 Ca        1 MOL      1.836549
    170 O24         3.5730    0.5750    3.3300 oh        1 MOL     -0.900048
    171 H77         2.6320    0.6760    3.5030 ho        1 MOL      0.430347
    172 H78         3.9390    0.2490    4.1510 ho        1 MOL      0.430347
    173 O25         1.2670    1.3210    1.8020 oh        1 MOL     -0.900048
    174 H79         0.5780    1.8050    2.2460 ho        1 MOL      0.430347
    175 H80         0.8110    0.7460    1.1990 ho        1 MOL      0.430347
    176 O26         2.1450    0.5840   -1.1630 oh        1 MOL     -0.900048
    177 H81         1.3740    0.2710   -0.6960 ho        1 MOL      0.430347
    178 H82         1.9160    0.5270   -2.0850 ho        1 MOL      0.430347
    179 O27         6.1880    1.7990    2.3040 oh        1 MOL     -0.900048
    180 H83         5.9670    2.2070    3.1410 ho        1 MOL      0.430347
    181 H84         6.7660    1.0680    2.5440 ho        1 MOL      0.430347
    182 O28         3.5950    3.3580    2.0770 oh        1 MOL     -0.900048
    183 H85         4.2550    3.9220    2.4790 ho        1 MOL      0.430347
    184 H86         2.7590    3.7500    2.3280 ho        1 MOL      0.430347
@<TRIPOS>BOND
     1    1    2 1   
     2    1    4 1   
     3    1    5 1   
     4    1    6 1   
     5    2    3 2   
     6    2    7 1   
     7    7    8 1   
     8    7   15 1   
     9    8    9 1   
    10    8   11 1   
    11    8   16 1   
    12    9   10 2   
    13    9   19 1   
    14   11   12 1   
    15   11   17 1   
    16   11   18 1   
    17   12   13 1   
    18   12   14 1   
    19   19   20 1   
    20   19   24 1   
    21   20   21 1   
    22   20   23 1   
    23   20   25 1   
    24   21   22 2   
    25   21   29 1   
    26   23   26 1   
    27   23   27 1   
    28   23   28 1   
    29   29   30 1   
    30   29   37 1   
    31   30   31 1   
    32   30   33 1   
    33   30   38 1   
    34   31   32 2   
    35   31   41 1   
    36   33   34 1   
    37   33   39 1   
    38   33   40 1   
    39   34   35 1   
    40   34   36 1   
    41   41   42 1   
    42   41   45 1   
    43   42   43 1   
    44   42   46 1   
    45   42   47 1   
    46   43   44 2   
    47   43   48 1   
    48   48   49 1   
    49   48   56 1   
    50   49   50 1   
    51   49   52 1   
    52   49   57 1   
    53   50   51 2   
    54   50   62 1   
    55   52   53 1   
    56   52   58 1   
    57   52   59 1   
    58   53   54 1   
    59   53   55 2   
    60   54   60 1   
    61   54   61 1   
    62   62   63 1   
    63   62   66 1   
    64   63   64 1   
    65   63   67 1   
    66   63   68 1   
    67   64   65 2   
    68   64   69 1   
    69   69   70 1   
    70   69   76 1   
    71   70   71 1   
    72   70   73 1   
    73   70   77 1   
    74   71   72 2   
    75   71   83 1   
    76   73   74 1   
    77   73   75 1   
    78   73   78 1   
    79   74   80 1   
    80   74   81 1   
    81   74   82 1   
    82   75   79 1   
    83   83   84 1   
    84   83   91 1   
    85   84   85 1   
    86   84   87 1   
    87   84   92 1   
    88   85   86 2   
    89   85  102 1   
    90   87   88 1   
    91   87   89 1   
    92   87   93 1   
    93   88   90 1   
    94   88   94 1   
    95   88   95 1   
    96   89   96 1   
    97   89   97 1   
    98   89   98 1   
    99   90   99 1   
   100   90  100 1   
   101   90  101 1   
   102  102  103 1   
   103  102  110 1   
   104  103  104 1   
   105  103  106 1   
   106  103  111 1   
   107  104  105 2   
   108  104  114 1   
   109  106  107 1   
   110  106  112 1   
   111  106  113 1   
   112  107  108 1   
   113  107  109 1   
   114  114  115 1   
   115  114  125 1   
   116  115  116 1   
   117  115  118 1   
   118  115  126 1   
   119  116  117 2   
   120  116  134 1   
   121  118  119 1   
   122  118  127 1   
   123  118  128 1   
   124  119  120 ar  
   125  119  121 ar  
   126  120  122 ar  
   127  120  129 1   
   128  121  123 ar  
   129  121  130 1   
   130  122  124 ar  
   131  122  131 1   
   132  123  124 ar  
   133  123  132 1   
   134  124  133 1   
   135  134  135 1   
   136  134  140 1   
   137  135  136 1   
   138  135  138 1   
   139  135  141 1   
   140  136  137 2   
   141  136  148 1   
   142  138  139 1   
   143  138  142 1   
   144  138  143 1   
   145  139  140 1   
   146  139  144 1   
   147  139  145 1   
   148  140  146 1   
   149  140  147 1   
   150  148  149 1   
   151  148  157 1   
   152  149  150 1   
   153  149  152 1   
   154  149  158 1   
   155  150  151 2   
   156  150  163 1   
   157  152  153 1   
   158  152  159 1   
   159  152  160 1   
   160  153  154 1   
   161  153  161 1   
   162  153  162 1   
   163  154  155 1   
   164  154  156 1   
   165  163  164 1   
   166  163  168 1   
   167  164  165 1   
   168  164  166 1   
   169  164  167 1   
   170  170  171 1   
   171  170  172 1   
   172  173  174 1   
   173  173  175 1   
   174  176  177 1   
   175  176  178 1   
   176  179  180 1   
   177  179  181 1   
   178  182  183 1   
   179  182  184 1   
@<TRIPOS>SUBSTRUCTURE
     1 MOL         1 TEMP              0 ****  ****    0 ROOT
