@<TRIPOS>MOLECULE
MOL
  182   178     1     0     0
SMALL
resp


@<TRIPOS>ATOM
      1 C1          0.3530   -3.8180    5.9220 c3        1 MOL     -0.391583
      2 C2          0.4900   -3.7480    4.3680 c         1 MOL      0.752722
      3 O1         -0.5020   -3.7900    3.6470 o         1 MOL     -0.605140
      4 H1          1.3230   -3.6300    6.3800 hc        1 MOL      0.109489
      5 H2         -0.3590   -3.0640    6.2590 hc        1 MOL      0.109489
      6 H3          0.0000   -4.8070    6.2130 hc        1 MOL      0.109489
      7 N1          1.6650   -3.6000    3.9190 n         1 MOL     -0.556171
      8 C3          2.0130   -3.0890    2.5770 c3        1 MOL      0.108720
      9 C4          1.9480   -4.2720    1.5910 c         1 MOL      0.534418
     10 O2          2.1820   -5.4180    1.9700 o         1 MOL     -0.552621
     11 C5          3.3650   -2.3920    2.6630 c3        1 MOL     -0.001149
     12 C6          3.6880   -1.4550    1.5060 c         1 MOL      0.379917
     13 O3          4.3440   -0.3920    1.6540 o         1 MOL     -0.541895
     14 O4          3.3130   -1.7190    0.3300 o         1 MOL     -0.541895
     15 H4          2.4240   -3.5070    4.5890 hn        1 MOL      0.314693
     16 H5          1.2320   -2.4050    2.2480 h1        1 MOL     -0.100446
     17 H6          4.1310   -3.1670    2.7160 hc        1 MOL      0.046919
     18 H7          3.3250   -1.8290    3.5910 hc        1 MOL      0.046919
     19 N2          1.7920   -4.1090    0.2560 n         1 MOL     -0.119959
     20 C7          1.8830   -5.1800   -0.7500 c3        1 MOL      0.043807
     21 C8          3.1470   -5.0900   -1.6260 c         1 MOL      0.537974
     22 O5          3.5470   -6.1260   -2.1100 o         1 MOL     -0.569500
     23 C9          0.5800   -5.3170   -1.6000 c3        1 MOL     -0.037862
     24 C10        -0.5250   -5.9450   -0.8400 c3        1 MOL     -0.011085
     25 C11        -1.5290   -6.2710   -1.9240 c3        1 MOL     -0.008366
     26 C12        -2.7080   -7.1660   -1.4230 c3        1 MOL      0.085313
     27 N3         -3.5920   -7.4360   -2.5760 n4        1 MOL     -0.249513
     28 H8          1.5660   -3.1960   -0.1360 hn        1 MOL     -0.090817
     29 H9          2.0220   -6.1140   -0.2160 h1        1 MOL      0.078632
     30 H10         0.8060   -5.9140   -2.4880 hc        1 MOL      0.018395
     31 H11         0.3390   -4.3010   -1.9280 hc        1 MOL      0.018395
     32 H12        -0.9320   -5.2760   -0.0910 hc        1 MOL      0.037114
     33 H13        -0.1900   -6.8210   -0.2910 hc        1 MOL      0.037114
     34 H14        -1.0710   -6.8480   -2.7190 hc        1 MOL      0.020343
     35 H15        -1.9520   -5.3780   -2.3880 hc        1 MOL      0.020343
     36 H16        -3.1970   -6.7060   -0.5650 hx        1 MOL      0.059098
     37 H17        -2.2630   -8.1100   -1.0930 hx        1 MOL      0.059098
     38 H18        -4.3640   -8.0220   -2.2960 hn        1 MOL      0.254753
     39 H19        -4.0370   -6.5990   -2.9380 hn        1 MOL      0.254753
     40 H20        -3.1250   -7.9070   -3.3360 hn        1 MOL      0.254753
     41 N4          3.7700   -3.9340   -1.7180 n         1 MOL     -0.482387
     42 C13         5.1520   -3.7830   -2.3130 c3        1 MOL      0.467683
     43 C14         6.2640   -3.5660   -1.2550 c         1 MOL      0.249801
     44 O6          7.3550   -4.1960   -1.4230 o         1 MOL     -0.519295
     45 C15         5.1640   -2.7060   -3.4210 c3        1 MOL     -0.572031
     46 C16         4.5210   -1.3500   -2.9250 c         1 MOL      0.901571
     47 O7          5.1390   -0.6080   -2.1220 o         1 MOL     -0.784115
     48 O8          3.2760   -1.1400   -3.1450 o         1 MOL     -0.784115
     49 H21         3.3140   -3.1060   -1.3730 hn        1 MOL      0.251837
     50 H22         5.5370   -4.6700   -2.8130 h1        1 MOL      0.035417
     51 H23         4.8240   -3.1220   -4.3670 hc        1 MOL      0.137696
     52 H24         6.2330   -2.5500   -3.5850 hc        1 MOL      0.137696
     53 N5          6.0050   -2.6900   -0.2440 n         1 MOL      0.031514
     54 C17         6.9120   -2.4020    0.8640 c3        1 MOL     -0.246918
     55 C18         7.2580   -0.9150    0.8980 c         1 MOL      0.505509
     56 O9          7.5420   -0.5360    2.0370 o         1 MOL     -0.546435
     57 H25         5.0440   -2.3760   -0.1880 hn        1 MOL     -0.018134
     58 H26         7.8330   -2.9840    0.8380 h1        1 MOL      0.146251
     59 H27         6.2990   -2.6690    1.7310 h1        1 MOL      0.146251
     60 N6          7.0470   -0.0600   -0.1420 n         1 MOL     -0.183177
     61 C19         7.2930    1.3670   -0.2980 c3        1 MOL      0.071373
     62 C20         6.1850    2.3120    0.1340 c         1 MOL      0.418818
     63 O10         5.0470    1.9940   -0.1790 o         1 MOL     -0.453460
     64 C21         7.7230    1.7460   -1.7220 c3        1 MOL     -0.299006
     65 C22         8.8320    0.8100   -2.1770 c         1 MOL      0.641871
     66 N7          8.5270   -0.1980   -2.9190 n         1 MOL     -0.803136
     67 O11        10.0260    0.9390   -1.7840 o         1 MOL     -0.547423
     68 H28         6.5340   -0.5080   -0.9040 hn        1 MOL      0.135344
     69 H29         8.1510    1.6140    0.3260 h1        1 MOL      0.033904
     70 H30         8.0270    2.7940   -1.6930 hc        1 MOL      0.068457
     71 H31         6.8490    1.5690   -2.3490 hc        1 MOL      0.068457
     72 H32         7.6460   -0.1670   -3.4170 hn        1 MOL      0.395173
     73 H33         9.1770   -0.9580   -3.0060 hn        1 MOL      0.395173
     74 N8          6.5040    3.4440    0.6990 n         1 MOL     -0.255209
     75 C23         5.7000    4.6310    0.6970 c3        1 MOL     -0.293979
     76 C24         4.3340    4.4590    1.3760 c         1 MOL      0.670687
     77 O12         4.2570    4.2040    2.6060 o         1 MOL     -0.517076
     78 H34         7.4890    3.4710    0.9290 hn        1 MOL      0.298841
     79 H35         5.5680    4.8900   -0.3510 h1        1 MOL      0.132155
     80 H36         6.3390    5.3100    1.2590 h1        1 MOL      0.132155
     81 N9          3.2580    4.8760    0.7060 n         1 MOL     -0.493120
     82 C25         1.8790    4.7200    1.1880 c3        1 MOL     -0.056948
     83 C26         1.5350    3.2190    1.3770 c         1 MOL      0.754467
     84 O13         2.1430    2.3830    0.6660 o         1 MOL     -0.691552
     85 C27         0.8870    5.3000    0.2220 c3        1 MOL     -0.069711
     86 C28         1.1520    6.6820   -0.2680 ca        1 MOL      0.122706
     87 C29         1.5800    7.7030    0.5850 ca        1 MOL     -0.208327
     88 C30         1.0790    6.9370   -1.6430 ca        1 MOL     -0.208327
     89 C31         1.8210    9.0020    0.1070 ca        1 MOL     -0.190436
     90 C32         1.3890    8.2080   -2.1680 ca        1 MOL     -0.190436
     91 C33         1.7460    9.2280   -1.2530 ca        1 MOL      0.263528
     92 O14         2.0730   10.4610   -1.8370 oh        1 MOL     -0.476760
     93 H37         3.3940    5.3270   -0.1910 hn        1 MOL      0.269909
     94 H38         1.8460    5.2370    2.1520 h1        1 MOL      0.086556
     95 H39        -0.0690    5.2900    0.7510 hc        1 MOL      0.042894
     96 H40         0.7000    4.6170   -0.6000 hc        1 MOL      0.042894
     97 H41         1.7690    7.5040    1.6370 ha        1 MOL      0.139509
     98 H42         0.8860    6.0760   -2.2570 ha        1 MOL      0.139509
     99 H43         2.2140    9.8060    0.7140 ha        1 MOL      0.149820
    100 H44         1.4670    8.3280   -3.2370 ha        1 MOL      0.149820
    101 H45         2.2850   11.1060   -1.1490 ho        1 MOL      0.364650
    102 N10         0.5960    2.8490    2.2260 n         1 MOL     -0.660125
    103 C34         0.0890    1.4580    2.6250 c3        1 MOL      0.086497
    104 C35        -0.1760    0.5110    1.4520 c         1 MOL      0.415408
    105 O15         0.7610    0.1470    0.7150 o         1 MOL     -0.402129
    106 C36         1.0680    0.7990    3.6590 c3        1 MOL      0.250134
    107 C37         0.3290   -0.4120    4.3130 c3        1 MOL     -0.242831
    108 C38         1.6110    1.8570    4.6260 c3        1 MOL     -0.248787
    109 C39        -0.8160   -0.1490    5.3600 c3        1 MOL     -0.392229
    110 H46         0.2360    3.5920    2.7990 hn        1 MOL      0.331958
    111 H47        -0.8390    1.6520    3.1460 h1        1 MOL      0.076188
    112 H48         1.9520    0.3750    3.1730 hc        1 MOL      0.022604
    113 H49         1.1640   -0.9730    4.7400 hc        1 MOL      0.110056
    114 H50        -0.0400   -1.0420    3.5060 hc        1 MOL      0.110056
    115 H51         2.2700    2.5390    4.0870 hc        1 MOL      0.066669
    116 H52         0.8650    2.5500    5.0370 hc        1 MOL      0.066669
    117 H53         2.1910    1.4490    5.4520 hc        1 MOL      0.066669
    118 H54        -1.3000   -1.1120    5.4900 hc        1 MOL      0.116023
    119 H55        -0.4530    0.2100    6.3270 hc        1 MOL      0.116023
    120 H56        -1.5140    0.5500    4.8960 hc        1 MOL      0.116023
    121 N11        -1.4180    0.0900    1.2790 n         1 MOL     -0.426684
    122 C40        -1.7240   -0.9370    0.1850 c3        1 MOL     -0.054380
    123 C41        -3.1770   -0.9160   -0.2230 c         1 MOL      0.662624
    124 O16        -3.5610   -1.7300   -1.0400 o         1 MOL     -0.572335
    125 C42        -1.3210   -2.3890    0.6290 c3        1 MOL      0.246849
    126 O17        -2.1900   -2.9240    1.6690 oh        1 MOL     -0.607931
    127 H57        -2.0930    0.5900    1.8370 hn        1 MOL      0.282392
    128 H58        -1.1790   -0.7480   -0.7440 h1        1 MOL      0.095397
    129 H59        -0.2870   -2.5550    0.9290 h1        1 MOL      0.014269
    130 H60        -1.4940   -2.9420   -0.2870 h1        1 MOL      0.014269
    131 H61        -1.5790   -3.2470    2.3350 ho        1 MOL      0.402777
    132 N12        -3.9400    0.0350    0.1580 n         1 MOL     -0.506838
    133 C43        -5.3760    0.1570   -0.1050 c3        1 MOL      0.194630
    134 C44        -5.5670    0.7000   -1.5460 c         1 MOL      0.497517
    135 O18        -4.5400    1.2080   -2.0540 o         1 MOL     -0.561341
    136 C45        -6.0420    0.9800    1.0270 c3        1 MOL     -0.266651
    137 H62        -3.5610    0.7700    0.7330 hn        1 MOL      0.265792
    138 H63        -5.8850   -0.8040   -0.1000 h1        1 MOL      0.061552
    139 H64        -7.0440    1.2280    0.6730 hc        1 MOL      0.082940
    140 H65        -6.1040    0.4190    1.9530 hc        1 MOL      0.082940
    141 H66        -5.4460    1.8820    1.2060 hc        1 MOL      0.082940
    142 N13        -6.6850    0.5980   -2.2380 n         1 MOL     -0.530578
    143 C46        -8.0050    0.0550   -1.8160 c3        1 MOL      0.394340
    144 C47        -9.1810    0.7700   -2.5600 c         1 MOL      0.439608
    145 O19        -8.9740    1.3390   -3.5890 o         1 MOL     -0.524232
    146 C48        -7.9980   -1.4190   -2.2350 c3        1 MOL     -0.380560
    147 H67        -6.6030    1.1170   -3.1010 hn        1 MOL      0.304762
    148 H68        -8.2110    0.1720   -0.7610 h1        1 MOL     -0.024576
    149 H69        -7.4040   -2.1200   -1.6530 hc        1 MOL      0.106145
    150 H70        -9.0270   -1.7450   -2.0450 hc        1 MOL      0.106145
    151 H71        -7.8570   -1.4210   -3.3100 hc        1 MOL      0.106145
    152 N14       -10.4510    0.7870   -2.1140 n         1 MOL     -0.427810
    153 C49       -10.8590    0.5120   -0.7110 c3        1 MOL     -0.160591
    154 C50       -10.2350    1.5460    0.2360 c         1 MOL      0.505357
    155 O20        -9.8230    1.2100    1.3420 o         1 MOL     -0.537031
    156 C51       -12.3870    0.3990   -0.6440 c3        1 MOL      0.092816
    157 C52       -12.8860   -0.1670    0.7630 c3        1 MOL     -0.298713
    158 C53       -14.4910   -0.3400    0.7170 c         1 MOL      0.712216
    159 O21       -14.9050   -1.2590   -0.0060 o         1 MOL     -0.663166
    160 O22       -15.2110    0.4190    1.4180 o         1 MOL     -0.663166
    161 H72       -11.0380    1.2640   -2.7790 hn        1 MOL      0.301624
    162 H73       -10.5410   -0.4570   -0.3310 h1        1 MOL      0.117886
    163 H74       -12.7340   -0.2200   -1.4730 hc        1 MOL      0.015179
    164 H75       -12.8210    1.3860   -0.7660 hc        1 MOL      0.015179
    165 H76       -12.5420    0.5050    1.5490 hc        1 MOL      0.067723
    166 H77       -12.3830   -1.1210    0.9490 hc        1 MOL      0.067723
    167 N15       -10.0470    2.7690   -0.1830 n         1 MOL     -0.276496
    168 C54        -9.1650    3.7610    0.4970 c3        1 MOL     -0.186120
    169 H78        -8.1280    3.4370    0.4210 h1        1 MOL      0.100692
    170 H79        -9.2770    4.7340    0.0190 h1        1 MOL      0.100692
    171 H80        -9.4460    3.8370    1.5480 h1        1 MOL      0.100692
    172 H81       -10.3960    2.9270   -1.1140 hn        1 MOL      0.248422
    173 Ca1         3.0270    0.5170   -1.0130 Ca        1 MOL      1.741150
    174 O23         4.0010    2.2260   -2.9850 oh        1 MOL     -0.815963
    175 H82         4.7020    2.0620   -3.6080 ho        1 MOL      0.409631
    176 H83         4.0870    3.1490   -2.7700 ho        1 MOL      0.409631
    177 O24         1.0150    1.3440   -2.4240 oh        1 MOL     -0.815963
    178 H84         0.0780    1.1470   -2.3570 ho        1 MOL      0.409631
    179 H85         1.0790    1.9290   -3.1830 ho        1 MOL      0.409631
    180 O25         1.2520   -1.7460   -1.6260 oh        1 MOL     -0.815963
    181 H86         1.9750   -1.6620   -2.2470 ho        1 MOL      0.409631
    182 H87         0.4940   -1.9510   -2.1740 ho        1 MOL      0.409631
@<TRIPOS>BOND
     1    1    2 1   
     2    1    4 1   
     3    1    5 1   
     4    1    6 1   
     5    2    3 2   
     6    2    7 1   
     7    7    8 1   
     8    7   15 1   
     9    8    9 1   
    10    8   11 1   
    11    8   16 1   
    12    9   10 2   
    13    9   19 1   
    14   11   12 1   
    15   11   17 1   
    16   11   18 1   
    17   12   13 1   
    18   12   14 1   
    19   19   20 1   
    20   19   28 1   
    21   20   21 1   
    22   20   23 1   
    23   20   29 1   
    24   21   22 2   
    25   21   41 1   
    26   23   24 1   
    27   23   30 1   
    28   23   31 1   
    29   24   25 1   
    30   24   32 1   
    31   24   33 1   
    32   25   26 1   
    33   25   34 1   
    34   25   35 1   
    35   26   27 1   
    36   26   36 1   
    37   26   37 1   
    38   27   38 1   
    39   27   39 1   
    40   27   40 1   
    41   41   42 1   
    42   41   49 1   
    43   42   43 1   
    44   42   45 1   
    45   42   50 1   
    46   43   44 2   
    47   43   53 1   
    48   45   46 1   
    49   45   51 1   
    50   45   52 1   
    51   46   47 1   
    52   46   48 1   
    53   53   54 1   
    54   53   57 1   
    55   54   55 1   
    56   54   58 1   
    57   54   59 1   
    58   55   56 2   
    59   55   60 1   
    60   60   61 1   
    61   60   68 1   
    62   61   62 1   
    63   61   64 1   
    64   61   69 1   
    65   62   63 2   
    66   62   74 1   
    67   64   65 1   
    68   64   70 1   
    69   64   71 1   
    70   65   66 1   
    71   65   67 2   
    72   66   72 1   
    73   66   73 1   
    74   74   75 1   
    75   74   78 1   
    76   75   76 1   
    77   75   79 1   
    78   75   80 1   
    79   76   77 2   
    80   76   81 1   
    81   81   82 1   
    82   81   93 1   
    83   82   83 1   
    84   82   85 1   
    85   82   94 1   
    86   83   84 2   
    87   83  102 1   
    88   85   86 1   
    89   85   95 1   
    90   85   96 1   
    91   86   87 ar  
    92   86   88 ar  
    93   87   89 ar  
    94   87   97 1   
    95   88   90 ar  
    96   88   98 1   
    97   89   91 ar  
    98   89   99 1   
    99   90   91 ar  
   100   90  100 1   
   101   91   92 1   
   102   92  101 1   
   103  102  103 1   
   104  102  110 1   
   105  103  104 1   
   106  103  106 1   
   107  103  111 1   
   108  104  105 2   
   109  104  121 1   
   110  106  107 1   
   111  106  108 1   
   112  106  112 1   
   113  107  109 1   
   114  107  113 1   
   115  107  114 1   
   116  108  115 1   
   117  108  116 1   
   118  108  117 1   
   119  109  118 1   
   120  109  119 1   
   121  109  120 1   
   122  121  122 1   
   123  121  127 1   
   124  122  123 1   
   125  122  125 1   
   126  122  128 1   
   127  123  124 2   
   128  123  132 1   
   129  125  126 1   
   130  125  129 1   
   131  125  130 1   
   132  126  131 1   
   133  132  133 1   
   134  132  137 1   
   135  133  134 1   
   136  133  136 1   
   137  133  138 1   
   138  134  135 2   
   139  134  142 1   
   140  136  139 1   
   141  136  140 1   
   142  136  141 1   
   143  142  143 1   
   144  142  147 1   
   145  143  144 1   
   146  143  146 1   
   147  143  148 1   
   148  144  145 2   
   149  144  152 1   
   150  146  149 1   
   151  146  150 1   
   152  146  151 1   
   153  152  153 1   
   154  152  161 1   
   155  153  154 1   
   156  153  156 1   
   157  153  162 1   
   158  154  155 2   
   159  154  167 1   
   160  156  157 1   
   161  156  163 1   
   162  156  164 1   
   163  157  158 1   
   164  157  165 1   
   165  157  166 1   
   166  158  159 1   
   167  158  160 1   
   168  167  168 1   
   169  167  172 1   
   170  168  169 1   
   171  168  170 1   
   172  168  171 1   
   173  174  175 1   
   174  174  176 1   
   175  177  178 1   
   176  177  179 1   
   177  180  181 1   
   178  180  182 1   
@<TRIPOS>SUBSTRUCTURE
     1 MOL         1 TEMP              0 ****  ****    0 ROOT
