@<TRIPOS>MOLECULE
MOL
  201   193     1     0     0
SMALL
resp


@<TRIPOS>ATOM
      1 C1         -3.8360   -1.7410    3.4870 c3        1 MOL     -0.528453
      2 C2         -3.0650   -2.1520    2.2910 c         1 MOL      0.770228
      3 O1         -2.4290   -1.3170    1.6640 o         1 MOL     -0.526544
      4 H1         -3.1660   -1.2690    4.2060 hc        1 MOL      0.131521
      5 H2         -4.6120   -1.0340    3.1950 hc        1 MOL      0.131521
      6 H3         -4.2970   -2.6180    3.9420 hc        1 MOL      0.131521
      7 N1         -3.0120   -3.4410    1.8890 n         1 MOL     -0.730849
      8 C3         -2.0850   -4.1010    0.8930 c3        1 MOL     -0.296854
      9 C4         -0.5410   -3.9820    1.0660 c         1 MOL      0.796945
     10 O2          0.2380   -4.4560    0.2440 o         1 MOL     -0.569754
     11 C5         -2.5410   -3.6980   -0.5020 c3        1 MOL     -0.289951
     12 C6         -4.0350   -3.9310   -0.5730 c         1 MOL      0.720827
     13 O3         -4.8820   -3.0840   -0.8600 o         1 MOL     -0.657588
     14 O4         -4.4370   -5.0970   -0.6060 o         1 MOL     -0.657588
     15 H4         -3.5720   -4.1430    2.3600 hn        1 MOL      0.357616
     16 H5         -2.2030   -5.1400    1.1970 h1        1 MOL      0.151879
     17 H6         -2.0110   -4.3640   -1.1710 hc        1 MOL      0.143216
     18 H7         -2.2220   -2.6850   -0.7190 hc        1 MOL      0.143216
     19 N2         -0.1680   -3.1960    2.0550 n         1 MOL     -0.418684
     20 C7          1.2550   -2.9170    2.4060 c3        1 MOL     -0.709149
     21 C8          1.9010   -4.2600    2.7590 c         1 MOL      0.508335
     22 O5          1.2820   -5.2200    3.2500 o         1 MOL     -0.556798
     23 C9          1.4730   -1.8440    3.4600 c3        1 MOL      0.338413
     24 C10         0.6690   -2.1450    4.7540 c3        1 MOL      0.044727
     25 C11         0.9460   -0.5440    2.8060 c3        1 MOL     -0.265819
     26 C12         0.6410   -1.1080    5.8600 c3        1 MOL     -0.278488
     27 H8         -0.8950   -3.0550    2.7480 hn        1 MOL      0.384250
     28 H9          1.7850   -2.6240    1.4990 h1        1 MOL      0.214195
     29 H10         2.5380   -1.7990    3.7170 hc        1 MOL      0.028571
     30 H11         1.0700   -3.1060    5.0950 hc        1 MOL      0.017038
     31 H12        -0.3440   -2.3100    4.3990 hc        1 MOL      0.017038
     32 H13         1.2410   -0.4970    1.7630 hc        1 MOL      0.101324
     33 H14        -0.1370   -0.4280    2.9120 hc        1 MOL      0.101324
     34 H15         1.4800    0.1840    3.4120 hc        1 MOL      0.101324
     35 H16         0.0290   -0.2380    5.6140 hc        1 MOL      0.061502
     36 H17         0.2400   -1.7070    6.6710 hc        1 MOL      0.061502
     37 H18         1.6790   -0.8210    6.0460 hc        1 MOL      0.061502
     38 N3          3.2370   -4.4490    2.7590 n         1 MOL     -0.274058
     39 C13         4.2480   -3.5030    2.3160 c3        1 MOL      0.091241
     40 C14         4.5810   -3.5890    0.7730 c         1 MOL      0.530374
     41 O6          4.7740   -2.5390    0.1920 o         1 MOL     -0.577657
     42 C15         5.4930   -3.6090    3.1970 c3        1 MOL     -0.435913
     43 C16         6.1670   -5.0250    3.2990 c         1 MOL      0.757950
     44 O7          7.2420   -5.1190    3.9580 o         1 MOL     -0.693286
     45 O8          5.7950   -5.9590    2.5940 o         1 MOL     -0.693286
     46 H19         3.5430   -5.3890    2.9610 hn        1 MOL      0.221403
     47 H20         3.9230   -2.4820    2.5570 h1        1 MOL      0.066951
     48 H21         5.1880   -3.2860    4.1930 hc        1 MOL      0.095045
     49 H22         6.1970   -2.9350    2.7060 hc        1 MOL      0.095045
     50 N4          4.5540   -4.7560    0.2050 n         1 MOL     -0.173685
     51 C17         4.6730   -4.8500   -1.2930 c3        1 MOL     -0.203674
     52 C18         6.0890   -4.5340   -1.8410 c         1 MOL      0.507381
     53 O9          7.0670   -5.2620   -1.7010 o         1 MOL     -0.521514
     54 H23         4.2980   -5.5550    0.7560 hn        1 MOL      0.247966
     55 H24         4.0370   -4.0540   -1.6640 h1        1 MOL      0.096381
     56 H25         4.2970   -5.8090   -1.6380 h1        1 MOL      0.096381
     57 N5          6.1990   -3.3340   -2.5470 n         1 MOL     -0.458031
     58 C19         7.4300   -2.7270   -2.9950 c3        1 MOL      0.157206
     59 C20         8.1650   -1.9050   -1.8570 c         1 MOL      0.294993
     60 O10         9.3590   -1.5940   -1.9940 o         1 MOL     -0.552014
     61 C21         7.0700   -1.7030   -4.0690 c3        1 MOL     -0.343007
     62 C22         6.2700   -0.4890   -3.6120 c         1 MOL      0.830576
     63 O11         5.0600   -0.5500   -3.4660 o         1 MOL     -0.708006
     64 O12         6.8660    0.6200   -3.5640 o         1 MOL     -0.708006
     65 H26         5.2910   -2.9020   -2.6020 hn        1 MOL      0.291628
     66 H27         8.0740   -3.5150   -3.3990 h1        1 MOL      0.073393
     67 H28         6.3110   -2.1860   -4.6740 hc        1 MOL      0.061091
     68 H29         7.9390   -1.3890   -4.6510 hc        1 MOL      0.061091
     69 N6          7.5500   -1.5330   -0.7670 n         1 MOL     -0.008277
     70 C23         8.0200   -0.7800    0.4350 c3        1 MOL     -0.300904
     71 C24         7.9330    0.7320    0.3970 c         1 MOL      0.575598
     72 O13         8.4760    1.3390    1.3830 o         1 MOL     -0.608078
     73 H30         6.5940   -1.8340   -0.6660 hn        1 MOL      0.170680
     74 H31         9.0950   -0.9360    0.4920 h1        1 MOL      0.143560
     75 H32         7.4410   -1.1350    1.2860 h1        1 MOL      0.143560
     76 N7          7.4100    1.3620   -0.6300 n         1 MOL     -0.282534
     77 C25         7.1530    2.8420   -0.7330 c3        1 MOL     -0.001748
     78 C26         6.1010    3.3920    0.3320 c         1 MOL      0.580226
     79 O14         6.2490    4.4360    0.9500 o         1 MOL     -0.505549
     80 C27         8.5400    3.5840   -0.8980 c3        1 MOL      0.168558
     81 C28         8.2530    4.7930   -1.8230 c3        1 MOL     -0.243608
     82 C29         9.3940    5.7510   -1.8890 c         1 MOL      0.656631
     83 N8         10.3990    5.5830   -2.6630 n         1 MOL     -0.783331
     84 O15         9.3270    6.7910   -1.2130 o         1 MOL     -0.595826
     85 H33         6.9260    0.7850   -1.3090 hn        1 MOL      0.174080
     86 H34         6.6890    2.9060   -1.7170 h1        1 MOL      0.079033
     87 H35         9.3130    2.9590   -1.3450 hc        1 MOL     -0.002623
     88 H36         8.9010    3.9390    0.0610 hc        1 MOL     -0.002623
     89 H37         7.3770    5.2720   -1.3760 hc        1 MOL      0.062410
     90 H38         7.9370    4.4950   -2.8230 hc        1 MOL      0.062410
     91 H39        10.4340    4.7860   -3.2680 hn        1 MOL      0.352497
     92 H40        11.1540    6.2480   -2.6470 hn        1 MOL      0.352497
     93 N9          5.0980    2.5710    0.6580 n         1 MOL     -0.560135
     94 C30         4.0110    2.8630    1.6390 c3        1 MOL      0.075319
     95 C31         2.5570    2.6410    1.1910 c         1 MOL      0.569264
     96 O16         1.5880    3.1110    1.8170 o         1 MOL     -0.547860
     97 C32         4.2290    1.9840    2.8420 c3        1 MOL      0.055462
     98 C33         4.4220    0.5560    2.5860 c3        1 MOL     -0.295154
     99 C34         5.4750    2.4820    3.5280 c3        1 MOL     -0.295154
    100 H41         4.9430    1.6550    0.2420 hn        1 MOL      0.310396
    101 H42         4.0360    3.8760    2.0210 h1        1 MOL      0.100316
    102 H43         3.4110    2.1920    3.5450 hc        1 MOL      0.019215
    103 H44         4.6430   -0.0310    3.4780 hc        1 MOL      0.081820
    104 H45         3.4590    0.1460    2.2600 hc        1 MOL      0.081820
    105 H46         5.3080    0.4890    1.9580 hc        1 MOL      0.081820
    106 H47         5.6050    3.5430    3.6890 hc        1 MOL      0.081820
    107 H48         5.7060    1.9470    4.4540 hc        1 MOL      0.081820
    108 H49         6.3330    2.1890    2.9250 hc        1 MOL      0.081820
    109 N10         2.4060    1.8130    0.0860 n         1 MOL     -0.478832
    110 C35         1.1240    1.6220   -0.5210 c3        1 MOL      0.002001
    111 C36         0.4990    2.9440   -0.9780 c         1 MOL      0.644506
    112 O17         1.1700    3.8660   -1.4610 o         1 MOL     -0.572006
    113 C37         1.1900    0.6930   -1.7080 c3        1 MOL     -0.494866
    114 C38         1.1390   -0.7960   -1.3550 c         1 MOL      0.913627
    115 N11         0.0150   -1.3760   -1.0080 n         1 MOL     -1.076535
    116 O18         2.1390   -1.4250   -1.4590 o         1 MOL     -0.550674
    117 H50         3.1780    1.5080   -0.4800 hn        1 MOL      0.317057
    118 H51         0.4160    1.1890    0.1940 h1        1 MOL      0.019037
    119 H52         1.9960    0.9200   -2.4130 hc        1 MOL      0.157656
    120 H53         0.2620    0.8140   -2.2480 hc        1 MOL      0.157656
    121 H54        -0.7770   -0.7780   -0.8230 hn        1 MOL      0.461823
    122 H55         0.1270   -2.2680   -0.5490 hn        1 MOL      0.461823
    123 N12        -0.7650    3.1070   -0.7100 n         1 MOL     -0.393794
    124 C39        -1.6860    4.1660   -1.1350 c3        1 MOL      0.140916
    125 C40        -2.8370    4.3320   -0.1050 c         1 MOL      0.372255
    126 O19        -3.3090    3.3980    0.5040 o         1 MOL     -0.525853
    127 C41        -2.2060    3.9230   -2.5770 c3        1 MOL     -0.183406
    128 C42        -2.6690    2.4850   -2.8640 ca        1 MOL      0.069268
    129 C43        -3.9260    2.0660   -2.3170 ca        1 MOL     -0.230794
    130 C44        -1.9230    1.6460   -3.6940 ca        1 MOL     -0.230794
    131 C45        -4.2610    0.7060   -2.4670 ca        1 MOL     -0.110847
    132 C46        -2.3380    0.2780   -3.8230 ca        1 MOL     -0.110847
    133 C47        -3.4890   -0.1980   -3.1980 ca        1 MOL      0.156633
    134 O20        -3.8410   -1.5150   -3.2440 oh        1 MOL     -0.447133
    135 H56        -1.2450    2.3370   -0.2790 hn        1 MOL      0.244672
    136 H57        -1.1620    5.1220   -1.1350 h1        1 MOL      0.087756
    137 H58        -1.4320    4.2180   -3.2780 hc        1 MOL      0.075825
    138 H59        -2.9980    4.6600   -2.6660 hc        1 MOL      0.075825
    139 H60        -4.5960    2.7450   -1.8170 ha        1 MOL      0.152347
    140 H61        -1.0070    2.0000   -4.1460 ha        1 MOL      0.152347
    141 H62        -5.1990    0.2690   -2.1680 ha        1 MOL      0.085919
    142 H63        -1.7020   -0.3110   -4.4760 ha        1 MOL      0.085919
    143 H64        -4.3320   -1.7510   -2.4590 ho        1 MOL      0.341335
    144 N13        -3.2980    5.5410    0.1150 n         1 MOL     -0.129238
    145 C48        -4.5170    5.7860    0.8290 c3        1 MOL     -0.039452
    146 C49        -5.6930    5.5490   -0.1090 c         1 MOL      0.618606
    147 O21        -5.9140    6.2360   -1.1400 o         1 MOL     -0.579626
    148 C50        -4.5490    7.2140    1.4390 c3        1 MOL      0.270497
    149 C51        -4.3390    8.4090    0.5220 c3        1 MOL     -0.363753
    150 C52        -2.9120    8.4760   -0.0050 c         1 MOL      0.653446
    151 O22        -1.9930    8.8490    0.7590 o         1 MOL     -0.657685
    152 O23        -2.7320    7.9520   -1.1400 o         1 MOL     -0.657685
    153 H65        -2.9160    6.3510   -0.3650 hn        1 MOL      0.150447
    154 H66        -4.5870    5.0640    1.6480 h1        1 MOL      0.027045
    155 H67        -3.7500    7.2270    2.1730 hc        1 MOL     -0.039184
    156 H68        -5.4370    7.4700    2.0230 hc        1 MOL     -0.039184
    157 H69        -4.5190    9.2060    1.2460 hc        1 MOL      0.061014
    158 H70        -5.1640    8.3760   -0.2070 hc        1 MOL      0.061014
    159 N14        -6.7580    4.7580    0.1280 n         1 MOL     -0.440630
    160 C53        -6.8970    3.7250    1.0810 c3        1 MOL     -0.189921
    161 C54        -7.1570    4.2160    2.5690 c         1 MOL      0.398827
    162 O24        -7.6320    5.3560    2.7690 o         1 MOL     -0.506400
    163 C55        -7.9590    2.7090    0.6620 c3        1 MOL      0.413090
    164 C56        -7.4700    1.8030   -0.4590 c3        1 MOL     -0.456724
    165 C57        -8.3900    0.5900   -0.6150 c         1 MOL      0.808712
    166 O25        -9.5900    0.6920   -0.9450 o         1 MOL     -0.749243
    167 O26        -7.8990   -0.5090   -0.3630 o         1 MOL     -0.749243
    168 H71        -7.4820    4.7480   -0.5740 hn        1 MOL      0.289960
    169 H72        -5.8940    3.2810    1.1160 h1        1 MOL      0.078947
    170 H73        -8.8420    3.1860    0.2320 hc        1 MOL     -0.059605
    171 H74        -8.3340    2.2610    1.5790 hc        1 MOL     -0.059605
    172 H75        -6.4550    1.4440   -0.3260 hc        1 MOL      0.111710
    173 H76        -7.5610    2.3780   -1.3850 hc        1 MOL      0.111710
    174 N15        -6.8460    3.3880    3.6090 n         1 MOL     -0.201406
    175 C58        -6.9850    3.5930    5.0450 c3        1 MOL     -0.188884
    176 H77        -6.0370    3.9390    5.4560 h1        1 MOL      0.085780
    177 H78        -7.7570    4.3400    5.2330 h1        1 MOL      0.085780
    178 H79        -7.2660    2.6530    5.5220 h1        1 MOL      0.085780
    179 H80        -6.4130    2.5150    3.3520 hn        1 MOL      0.221854
    180 Ca1        -7.0110   -4.7530   -1.5460 Ca        1 MOL      1.754384
    181 O27        -6.1930   -7.2840   -1.5120 oh        1 MOL     -0.864935
    182 H81        -5.4790   -7.7930   -1.1470 ho        1 MOL      0.409099
    183 H82        -6.9800   -7.6410   -1.1050 ho        1 MOL      0.409099
    184 O28        -7.4510   -2.0190   -2.4720 oh        1 MOL     -0.864935
    185 H83        -7.6390   -1.5980   -1.6380 ho        1 MOL      0.409099
    186 H84        -7.5640   -1.3310   -3.1230 ho        1 MOL      0.409099
    187 O29        -7.7890   -2.9030    0.6020 oh        1 MOL     -0.864935
    188 H85        -7.2480   -3.0550    1.3730 ho        1 MOL      0.409099
    189 H86        -7.6680   -1.9780    0.3980 ho        1 MOL      0.409099
    190 O30        -7.0060   -5.8960    1.0630 oh        1 MOL     -0.864935
    191 H87        -6.4060   -5.2590    1.4640 ho        1 MOL      0.409099
    192 H88        -7.2570   -6.4780    1.7780 ho        1 MOL      0.409099
    193 O31        -9.3830   -6.1720   -1.5780 oh        1 MOL     -0.864935
    194 H89        -9.7810   -6.8810   -2.0700 ho        1 MOL      0.409099
    195 H90        -9.9940   -5.4410   -1.6620 ho        1 MOL      0.409099
    196 O32        -5.4100   -4.8870   -3.6590 oh        1 MOL     -0.864935
    197 H91        -5.7210   -5.1890   -4.5140 ho        1 MOL      0.409099
    198 H92        -4.4640   -5.0760   -3.6710 ho        1 MOL      0.409099
    199 O33        -8.2190   -4.4840   -3.8920 oh        1 MOL     -0.864935
    200 H93        -9.1330   -4.3900   -4.1600 ho        1 MOL      0.409099
    201 H94        -7.7350   -3.9080   -4.4810 ho        1 MOL      0.409099
@<TRIPOS>BOND
     1    1    2 1   
     2    1    4 1   
     3    1    5 1   
     4    1    6 1   
     5    2    3 2   
     6    2    7 1   
     7    7    8 1   
     8    7   15 1   
     9    8    9 1   
    10    8   11 1   
    11    8   16 1   
    12    9   10 2   
    13    9   19 1   
    14   11   12 1   
    15   11   17 1   
    16   11   18 1   
    17   12   13 1   
    18   12   14 1   
    19   19   20 1   
    20   19   27 1   
    21   20   21 1   
    22   20   23 1   
    23   20   28 1   
    24   21   22 2   
    25   21   38 1   
    26   23   24 1   
    27   23   25 1   
    28   23   29 1   
    29   24   26 1   
    30   24   30 1   
    31   24   31 1   
    32   25   32 1   
    33   25   33 1   
    34   25   34 1   
    35   26   35 1   
    36   26   36 1   
    37   26   37 1   
    38   38   39 1   
    39   38   46 1   
    40   39   40 1   
    41   39   42 1   
    42   39   47 1   
    43   40   41 2   
    44   40   50 1   
    45   42   43 1   
    46   42   48 1   
    47   42   49 1   
    48   43   44 1   
    49   43   45 1   
    50   50   51 1   
    51   50   54 1   
    52   51   52 1   
    53   51   55 1   
    54   51   56 1   
    55   52   53 2   
    56   52   57 1   
    57   57   58 1   
    58   57   65 1   
    59   58   59 1   
    60   58   61 1   
    61   58   66 1   
    62   59   60 2   
    63   59   69 1   
    64   61   62 1   
    65   61   67 1   
    66   61   68 1   
    67   62   63 1   
    68   62   64 1   
    69   69   70 1   
    70   69   73 1   
    71   70   71 1   
    72   70   74 1   
    73   70   75 1   
    74   71   72 2   
    75   71   76 1   
    76   76   77 1   
    77   76   85 1   
    78   77   78 1   
    79   77   80 1   
    80   77   86 1   
    81   78   79 2   
    82   78   93 1   
    83   80   81 1   
    84   80   87 1   
    85   80   88 1   
    86   81   82 1   
    87   81   89 1   
    88   81   90 1   
    89   82   83 1   
    90   82   84 2   
    91   83   91 1   
    92   83   92 1   
    93   93   94 1   
    94   93  100 1   
    95   94   95 1   
    96   94   97 1   
    97   94  101 1   
    98   95   96 2   
    99   95  109 1   
   100   97   98 1   
   101   97   99 1   
   102   97  102 1   
   103   98  103 1   
   104   98  104 1   
   105   98  105 1   
   106   99  106 1   
   107   99  107 1   
   108   99  108 1   
   109  109  110 1   
   110  109  117 1   
   111  110  111 1   
   112  110  113 1   
   113  110  118 1   
   114  111  112 2   
   115  111  123 1   
   116  113  114 1   
   117  113  119 1   
   118  113  120 1   
   119  114  115 1   
   120  114  116 2   
   121  115  121 1   
   122  115  122 1   
   123  123  124 1   
   124  123  135 1   
   125  124  125 1   
   126  124  127 1   
   127  124  136 1   
   128  125  126 2   
   129  125  144 1   
   130  127  128 1   
   131  127  137 1   
   132  127  138 1   
   133  128  129 ar  
   134  128  130 ar  
   135  129  131 ar  
   136  129  139 1   
   137  130  132 ar  
   138  130  140 1   
   139  131  133 ar  
   140  131  141 1   
   141  132  133 ar  
   142  132  142 1   
   143  133  134 1   
   144  134  143 1   
   145  144  145 1   
   146  144  153 1   
   147  145  146 1   
   148  145  148 1   
   149  145  154 1   
   150  146  147 2   
   151  146  159 1   
   152  148  149 1   
   153  148  155 1   
   154  148  156 1   
   155  149  150 1   
   156  149  157 1   
   157  149  158 1   
   158  150  151 1   
   159  150  152 1   
   160  159  160 1   
   161  159  168 1   
   162  160  161 1   
   163  160  163 1   
   164  160  169 1   
   165  161  162 2   
   166  161  174 1   
   167  163  164 1   
   168  163  170 1   
   169  163  171 1   
   170  164  165 1   
   171  164  172 1   
   172  164  173 1   
   173  165  166 1   
   174  165  167 1   
   175  174  175 1   
   176  174  179 1   
   177  175  176 1   
   178  175  177 1   
   179  175  178 1   
   180  181  182 1   
   181  181  183 1   
   182  184  185 1   
   183  184  186 1   
   184  187  188 1   
   185  187  189 1   
   186  190  191 1   
   187  190  192 1   
   188  193  194 1   
   189  193  195 1   
   190  196  197 1   
   191  196  198 1   
   192  199  200 1   
   193  199  201 1   
@<TRIPOS>SUBSTRUCTURE
     1 MOL         1 TEMP              0 ****  ****    0 ROOT
