@<TRIPOS>MOLECULE
MOL
  179   176     1     0     0
SMALL
resp


@<TRIPOS>ATOM
      1 C1          0.0620   -3.6660    5.8690 c3        1 MOL     -0.346815
      2 C2          0.3080   -3.7740    4.3380 c         1 MOL      0.729022
      3 O1         -0.5530   -3.9660    3.5010 o         1 MOL     -0.578246
      4 H1         -0.3140   -4.6180    6.2430 hc        1 MOL      0.102132
      5 H2          0.9980   -3.4220    6.3710 hc        1 MOL      0.102132
      6 H3         -0.6710   -2.8840    6.0660 hc        1 MOL      0.102132
      7 N1          1.5430   -3.4340    3.9250 n         1 MOL     -0.557069
      8 C3          1.9470   -3.2410    2.5480 c3        1 MOL      0.007285
      9 C4          1.8330   -4.5470    1.7240 c         1 MOL      0.609127
     10 O2          2.1180   -5.5800    2.2800 o         1 MOL     -0.526654
     11 C5          3.3150   -2.6690    2.5850 c3        1 MOL     -0.442987
     12 C6          3.5020   -1.7840    1.3480 c         1 MOL      0.761604
     13 O3          4.2300   -0.7940    1.4270 o         1 MOL     -0.722841
     14 O4          2.9590   -2.0160    0.2790 o         1 MOL     -0.722841
     15 H4          2.2140   -3.1430    4.6160 hn        1 MOL      0.320591
     16 H5          1.2390   -2.5080    2.1700 h1        1 MOL      0.013157
     17 H6          4.0760   -3.4390    2.5140 hc        1 MOL      0.173046
     18 H7          3.5510   -2.0460    3.4490 hc        1 MOL      0.173046
     19 N2          1.5860   -4.4380    0.3720 n         1 MOL     -0.392385
     20 C7          1.6940   -5.6130   -0.5700 c3        1 MOL     -0.016574
     21 C8          2.9740   -5.5220   -1.3620 c         1 MOL      0.476004
     22 O5          3.2940   -6.5070   -1.9780 o         1 MOL     -0.560268
     23 C9          0.4410   -5.8350   -1.5240 c3        1 MOL      0.099406
     24 C10        -0.7880   -6.2440   -0.6560 c3        1 MOL     -0.211427
     25 C11        -2.0580   -6.1970   -1.5600 c3        1 MOL      0.116697
     26 C12        -3.2420   -7.0850   -1.1770 c3        1 MOL      0.151163
     27 N3         -4.4810   -6.5490   -1.8450 n4        1 MOL     -0.332474
     28 H8          1.5150   -3.5220   -0.0410 hn        1 MOL      0.374325
     29 H9          1.6580   -6.5220    0.0290 h1        1 MOL      0.090603
     30 H10         0.7140   -6.4770   -2.3510 hc        1 MOL     -0.002342
     31 H11         0.2390   -4.8100   -1.8610 hc        1 MOL     -0.002342
     32 H12        -0.9420   -5.6340    0.2320 hc        1 MOL      0.079948
     33 H13        -0.7570   -7.3280   -0.5190 hc        1 MOL      0.079948
     34 H14        -1.7960   -6.5060   -2.5760 hc        1 MOL     -0.007408
     35 H15        -2.3430   -5.1480   -1.5120 hc        1 MOL     -0.007408
     36 H16        -3.4500   -7.0540   -0.1040 hx        1 MOL      0.038510
     37 H17        -3.1060   -8.1430   -1.3730 hx        1 MOL      0.038510
     38 H18        -4.4240   -6.6130   -2.8450 hn        1 MOL      0.280315
     39 H19        -5.2310   -7.1950   -1.6600 hn        1 MOL      0.280315
     40 H20        -4.8360   -5.6820   -1.4690 hn        1 MOL      0.280315
     41 N4          3.7380   -4.4560   -1.3730 n         1 MOL     -0.260593
     42 C13         4.9230   -4.2420   -2.2230 c3        1 MOL      0.072847
     43 C14         6.1130   -3.7840   -1.2900 c         1 MOL      0.326873
     44 O6          7.2710   -3.7800   -1.7470 o         1 MOL     -0.535655
     45 C15         4.6820   -3.2640   -3.3180 c3        1 MOL     -0.154909
     46 C16         4.2470   -1.8540   -2.8580 c         1 MOL      0.638863
     47 O7          4.8790   -1.2810   -1.9320 o         1 MOL     -0.739008
     48 O8          3.1120   -1.3490   -3.1200 o         1 MOL     -0.739008
     49 H21         3.3930   -3.6530   -0.8590 hn        1 MOL      0.127059
     50 H22         5.2310   -5.1800   -2.6930 h1        1 MOL      0.104581
     51 H23         4.0100   -3.7350   -4.0290 hc        1 MOL      0.078575
     52 H24         5.5570   -3.1390   -3.9620 hc        1 MOL      0.078575
     53 N5          5.8740   -3.2670   -0.1080 n         1 MOL      0.023209
     54 C17         6.9310   -3.0210    0.8850 c3        1 MOL     -0.226733
     55 C18         7.5530   -1.6050    0.8430 c         1 MOL      0.619872
     56 O9          8.3340   -1.3300    1.7410 o         1 MOL     -0.560772
     57 H25         4.9460   -3.2900    0.3010 hn        1 MOL      0.046226
     58 H26         7.7510   -3.7030    0.6590 h1        1 MOL      0.113115
     59 H27         6.4830   -3.2590    1.8520 h1        1 MOL      0.113115
     60 N6          7.2980   -0.7420   -0.1570 n         1 MOL     -0.264541
     61 C19         7.7850    0.6070   -0.3760 c3        1 MOL      0.033774
     62 C20         6.6970    1.7540   -0.4210 c         1 MOL      0.617789
     63 O10         5.5760    1.4400   -0.7930 o         1 MOL     -0.598530
     64 C21         8.7510    0.8020   -1.5680 c3        1 MOL     -0.167946
     65 C22         8.0280    0.8830   -2.9490 c         1 MOL      0.554248
     66 N7          6.9440    0.1980   -3.1670 n         1 MOL     -0.592662
     67 O11         8.4530    1.6280   -3.8030 o         1 MOL     -0.581328
     68 H28         6.5800   -1.0470   -0.8020 hn        1 MOL      0.169848
     69 H29         8.3410    0.7930    0.5460 h1        1 MOL      0.031989
     70 H30         9.4530   -0.0350   -1.5470 hc        1 MOL      0.071709
     71 H31         9.3360    1.7210   -1.4900 hc        1 MOL      0.071709
     72 H32         6.5030   -0.4930   -2.5810 hn        1 MOL      0.306863
     73 H33         6.5610    0.3970   -4.0850 hn        1 MOL      0.306863
     74 N8          6.9820    3.0340   -0.0790 n         1 MOL     -0.458082
     75 C23         6.0970    4.1830   -0.3710 c3        1 MOL     -0.064887
     76 C24         4.9670    4.3620    0.6030 c         1 MOL      0.556496
     77 O12         5.1340    4.2490    1.7890 o         1 MOL     -0.493938
     78 H34         7.8550    3.0950    0.4170 hn        1 MOL      0.310084
     79 H35         5.7400    4.1060   -1.3990 h1        1 MOL      0.092002
     80 H36         6.7200    5.0770   -0.3970 h1        1 MOL      0.092002
     81 N9          3.7250    4.5930    0.0990 n         1 MOL     -0.559505
     82 C25         2.4300    4.7320    0.8550 c3        1 MOL      0.189433
     83 C26         2.0250    3.2750    1.2880 c         1 MOL      0.579818
     84 O13         2.7120    2.2940    0.9590 o         1 MOL     -0.453674
     85 C27         1.3910    5.4770    0.1190 c3        1 MOL     -0.202120
     86 C28         1.7870    6.9390   -0.1380 ca        1 MOL      0.034924
     87 C29         2.0820    7.8030    0.9290 ca        1 MOL     -0.108278
     88 C30         1.9100    7.4890   -1.4560 ca        1 MOL     -0.108278
     89 C31         2.4050    9.1780    0.7490 ca        1 MOL     -0.305387
     90 C32         2.2700    8.8360   -1.5820 ca        1 MOL     -0.305387
     91 C33         2.5160    9.7160   -0.5000 ca        1 MOL      0.412974
     92 O14         2.7920   10.9770   -0.7330 oh        1 MOL     -0.486701
     93 H37         3.7390    4.7160   -0.9070 hn        1 MOL      0.265510
     94 H38         2.7190    5.3290    1.7260 h1        1 MOL      0.067332
     95 H39         0.4300    5.4470    0.6530 hc        1 MOL      0.063015
     96 H40         1.3070    4.9580   -0.8370 hc        1 MOL      0.063015
     97 H41         1.9460    7.3600    1.8980 ha        1 MOL      0.120546
     98 H42         1.6550    6.9160   -2.3350 ha        1 MOL      0.120546
     99 H43         2.4110    9.7820    1.6390 ha        1 MOL      0.154736
    100 H44         2.3080    9.1720   -2.6120 ha        1 MOL      0.154736
    101 H45         2.9230   11.5330    0.0490 ho        1 MOL      0.390133
    102 N10         0.8370    3.0540    1.9680 n         1 MOL     -0.752998
    103 C34         0.3840    1.7530    2.4140 c3        1 MOL      0.151421
    104 C35         0.0390    0.7560    1.2700 c         1 MOL      0.421509
    105 O15         0.9800    0.2130    0.6690 o         1 MOL     -0.529362
    106 C36         1.2390    1.0660    3.5130 c3        1 MOL      0.351642
    107 C37         0.3880   -0.0420    4.2330 c3        1 MOL     -0.074122
    108 C38         1.6010    2.2070    4.5430 c3        1 MOL     -0.320287
    109 C39        -0.7230    0.4400    5.1540 c3        1 MOL     -0.323623
    110 H46         0.1520    3.7560    2.2000 hn        1 MOL      0.373518
    111 H47        -0.5370    1.9770    2.9640 h1        1 MOL      0.020240
    112 H48         2.1440    0.6680    3.0440 hc        1 MOL     -0.031628
    113 H49         1.1360   -0.5960    4.7930 hc        1 MOL      0.037278
    114 H50        -0.0300   -0.7020    3.4730 hc        1 MOL      0.037278
    115 H51         2.3000    1.7570    5.2500 hc        1 MOL      0.078748
    116 H52         2.1870    2.9780    4.0420 hc        1 MOL      0.078748
    117 H53         0.7600    2.7210    5.0180 hc        1 MOL      0.078748
    118 H54        -1.2270   -0.4610    5.5070 hc        1 MOL      0.085194
    119 H55        -0.4190    0.9870    6.0500 hc        1 MOL      0.085194
    120 H56        -1.4240    0.9790    4.5250 hc        1 MOL      0.085194
    121 N11        -1.1780    0.3790    1.1260 n         1 MOL     -0.446671
    122 C40        -1.6260   -0.7110    0.2070 c3        1 MOL     -0.270737
    123 C41        -3.1250   -0.8020   -0.2850 c         1 MOL      0.535459
    124 O16        -3.4040   -1.7950   -0.8860 o         1 MOL     -0.514993
    125 C42        -1.1200   -2.0580    0.8350 c3        1 MOL      0.431340
    126 O17        -1.7080   -2.1030    2.1020 oh        1 MOL     -0.571705
    127 H57        -1.8970    0.7190    1.7420 hn        1 MOL      0.340964
    128 H58        -1.0190   -0.5220   -0.6850 h1        1 MOL      0.193650
    129 H59        -0.0340   -2.1800    0.7920 h1        1 MOL     -0.086567
    130 H60        -1.5270   -2.8820    0.2610 h1        1 MOL     -0.086567
    131 H61        -1.3900   -2.8410    2.6200 ho        1 MOL      0.364784
    132 N12        -3.9590    0.1160    0.0550 n         1 MOL     -0.316987
    133 C43        -5.3910    0.2290   -0.3400 c3        1 MOL     -0.085122
    134 C44        -5.6940    0.6970   -1.7570 c         1 MOL      0.600265
    135 O18        -4.7880    1.0470   -2.5070 o         1 MOL     -0.548773
    136 C45        -6.0620    1.0840    0.7620 c3        1 MOL     -0.126488
    137 H62        -3.6520    0.8300    0.6950 hn        1 MOL      0.228277
    138 H63        -5.8390   -0.7630   -0.2160 h1        1 MOL      0.141874
    139 H64        -7.0450    1.4720    0.5150 hc        1 MOL      0.061360
    140 H65        -6.2790    0.4660    1.6310 hc        1 MOL      0.061360
    141 H66        -5.5480    1.9500    1.1740 hc        1 MOL      0.061360
    142 N13        -6.9630    0.7040   -2.2280 n         1 MOL     -0.648661
    143 C46        -8.1820    0.2230   -1.7100 c3        1 MOL      0.464187
    144 C47        -9.3600    1.0830   -2.2870 c         1 MOL      0.367825
    145 O19        -9.2170    1.6600   -3.3640 o         1 MOL     -0.506107
    146 C48        -8.2720   -1.2840   -1.9860 c3        1 MOL     -0.208558
    147 H67        -6.9510    1.0760   -3.1590 hn        1 MOL      0.327211
    148 H68        -8.2570    0.2940   -0.6310 h1        1 MOL     -0.034450
    149 H69        -9.1930   -1.6590   -1.5500 hc        1 MOL      0.050224
    150 H70        -8.3380   -1.5680   -3.0400 hc        1 MOL      0.050224
    151 H71        -7.4340   -1.7580   -1.4860 hc        1 MOL      0.050224
    152 N14       -10.5340    1.0440   -1.6260 n         1 MOL     -0.359935
    153 C49       -10.7570    0.8840   -0.1960 c3        1 MOL     -0.264388
    154 C50       -10.0930    1.9730    0.6810 c         1 MOL      0.477087
    155 O20        -9.5730    1.7110    1.7700 o         1 MOL     -0.511707
    156 C51       -12.2270    0.7170    0.1550 c3        1 MOL      0.065043
    157 C52       -12.9830   -0.6030   -0.0770 c3        1 MOL     -0.104265
    158 C53       -14.4940   -0.5430   -0.1740 c         1 MOL      0.707422
    159 O21       -14.8860   -1.1660   -1.1670 o         1 MOL     -0.685252
    160 O22       -15.1340    0.1300    0.6340 o         1 MOL     -0.685252
    161 H72       -11.2740    1.4280   -2.2020 hn        1 MOL      0.315907
    162 H73       -10.2710   -0.0650    0.0420 h1        1 MOL      0.128606
    163 H74       -12.8530    1.5370   -0.2010 hc        1 MOL      0.026448
    164 H75       -12.3270    0.8970    1.2210 hc        1 MOL      0.026448
    165 H76       -12.6900   -1.3680    0.6430 hc        1 MOL     -0.001118
    166 H77       -12.5710   -0.9410   -1.0320 hc        1 MOL     -0.001118
    167 N15        -9.8440    3.1600    0.1160 n         1 MOL     -0.273906
    168 C54        -8.9960    4.2200    0.6850 c3        1 MOL     -0.094688
    169 H78        -8.5870    3.8850    1.6390 h1        1 MOL      0.072847
    170 H79        -8.1790    4.4400   -0.0020 h1        1 MOL      0.072847
    171 H80        -9.5930    5.1180    0.8420 h1        1 MOL      0.072847
    172 H81       -10.2560    3.3460   -0.7800 hn        1 MOL      0.247754
    173 Ca1         2.9170    0.3140   -0.9290 Ca        1 MOL      1.777436
    174 O23         0.5240    1.0670   -2.0490 oh        1 MOL     -0.856824
    175 H82         0.1700    1.9050   -1.7590 ho        1 MOL      0.429339
    176 H83        -0.1340    0.7160   -2.6440 ho        1 MOL      0.429339
    177 O24         3.0680    2.3310   -2.6940 oh        1 MOL     -0.856824
    178 H84         2.4170    2.8800   -3.1360 ho        1 MOL      0.429339
    179 H85         3.8470    2.3670   -3.2590 ho        1 MOL      0.429339
@<TRIPOS>BOND
     1    1    2 1   
     2    1    4 1   
     3    1    5 1   
     4    1    6 1   
     5    2    3 2   
     6    2    7 1   
     7    7    8 1   
     8    7   15 1   
     9    8    9 1   
    10    8   11 1   
    11    8   16 1   
    12    9   10 2   
    13    9   19 1   
    14   11   12 1   
    15   11   17 1   
    16   11   18 1   
    17   12   13 1   
    18   12   14 1   
    19   19   20 1   
    20   19   28 1   
    21   20   21 1   
    22   20   23 1   
    23   20   29 1   
    24   21   22 2   
    25   21   41 1   
    26   23   24 1   
    27   23   30 1   
    28   23   31 1   
    29   24   25 1   
    30   24   32 1   
    31   24   33 1   
    32   25   26 1   
    33   25   34 1   
    34   25   35 1   
    35   26   27 1   
    36   26   36 1   
    37   26   37 1   
    38   27   38 1   
    39   27   39 1   
    40   27   40 1   
    41   41   42 1   
    42   41   49 1   
    43   42   43 1   
    44   42   45 1   
    45   42   50 1   
    46   43   44 2   
    47   43   53 1   
    48   45   46 1   
    49   45   51 1   
    50   45   52 1   
    51   46   47 1   
    52   46   48 1   
    53   53   54 1   
    54   53   57 1   
    55   54   55 1   
    56   54   58 1   
    57   54   59 1   
    58   55   56 2   
    59   55   60 1   
    60   60   61 1   
    61   60   68 1   
    62   61   62 1   
    63   61   64 1   
    64   61   69 1   
    65   62   63 2   
    66   62   74 1   
    67   64   65 1   
    68   64   70 1   
    69   64   71 1   
    70   65   66 1   
    71   65   67 2   
    72   66   72 1   
    73   66   73 1   
    74   74   75 1   
    75   74   78 1   
    76   75   76 1   
    77   75   79 1   
    78   75   80 1   
    79   76   77 2   
    80   76   81 1   
    81   81   82 1   
    82   81   93 1   
    83   82   83 1   
    84   82   85 1   
    85   82   94 1   
    86   83   84 2   
    87   83  102 1   
    88   85   86 1   
    89   85   95 1   
    90   85   96 1   
    91   86   87 ar  
    92   86   88 ar  
    93   87   89 ar  
    94   87   97 1   
    95   88   90 ar  
    96   88   98 1   
    97   89   91 ar  
    98   89   99 1   
    99   90   91 ar  
   100   90  100 1   
   101   91   92 1   
   102   92  101 1   
   103  102  103 1   
   104  102  110 1   
   105  103  104 1   
   106  103  106 1   
   107  103  111 1   
   108  104  105 2   
   109  104  121 1   
   110  106  107 1   
   111  106  108 1   
   112  106  112 1   
   113  107  109 1   
   114  107  113 1   
   115  107  114 1   
   116  108  115 1   
   117  108  116 1   
   118  108  117 1   
   119  109  118 1   
   120  109  119 1   
   121  109  120 1   
   122  121  122 1   
   123  121  127 1   
   124  122  123 1   
   125  122  125 1   
   126  122  128 1   
   127  123  124 2   
   128  123  132 1   
   129  125  126 1   
   130  125  129 1   
   131  125  130 1   
   132  126  131 1   
   133  132  133 1   
   134  132  137 1   
   135  133  134 1   
   136  133  136 1   
   137  133  138 1   
   138  134  135 2   
   139  134  142 1   
   140  136  139 1   
   141  136  140 1   
   142  136  141 1   
   143  142  143 1   
   144  142  147 1   
   145  143  144 1   
   146  143  146 1   
   147  143  148 1   
   148  144  145 2   
   149  144  152 1   
   150  146  149 1   
   151  146  150 1   
   152  146  151 1   
   153  152  153 1   
   154  152  161 1   
   155  153  154 1   
   156  153  156 1   
   157  153  162 1   
   158  154  155 2   
   159  154  167 1   
   160  156  157 1   
   161  156  163 1   
   162  156  164 1   
   163  157  158 1   
   164  157  165 1   
   165  157  166 1   
   166  158  159 1   
   167  158  160 1   
   168  167  168 1   
   169  167  172 1   
   170  168  169 1   
   171  168  170 1   
   172  168  171 1   
   173  174  175 1   
   174  174  176 1   
   175  177  178 1   
   176  177  179 1   
@<TRIPOS>SUBSTRUCTURE
     1 MOL         1 TEMP              0 ****  ****    0 ROOT
