@<TRIPOS>MOLECULE
MOL
  192   187     1     0     0
SMALL
resp


@<TRIPOS>ATOM
      1 C1         -5.7210   -4.7300    3.9320 c3        1 MOL     -0.217645
      2 C2         -5.1720   -3.7050    2.9500 c         1 MOL      0.638267
      3 O1         -5.0870   -3.9870    1.7320 o         1 MOL     -0.586898
      4 H1         -6.5480   -4.2910    4.4900 hc        1 MOL      0.054300
      5 H2         -6.0750   -5.6040    3.3870 hc        1 MOL      0.054300
      6 H3         -4.9350   -5.0280    4.6260 hc        1 MOL      0.054300
      7 N1         -4.9920   -2.4700    3.4260 n         1 MOL     -0.396274
      8 C3         -4.7350   -1.3720    2.5710 c3        1 MOL      0.042947
      9 C4         -3.2220   -1.3240    2.1010 c         1 MOL      0.270149
     10 O2         -3.0040   -0.7360    1.0440 o         1 MOL     -0.253226
     11 C5         -5.2510   -0.0260    3.1100 c3        1 MOL     -0.174134
     12 C6         -5.3330    0.2390    4.5490 c         1 MOL      0.705198
     13 O3         -5.5730    1.4430    4.8690 o         1 MOL     -0.701278
     14 O4         -5.3300   -0.5870    5.4760 o         1 MOL     -0.701278
     15 H4         -5.2280   -2.3810    4.4040 hn        1 MOL      0.239092
     16 H5         -5.3620   -1.5830    1.7050 h1        1 MOL      0.083950
     17 H6         -6.2820    0.0770    2.7620 hc        1 MOL      0.079395
     18 H7         -4.7060    0.7900    2.6330 hc        1 MOL      0.079395
     19 N2         -2.2380   -2.0050    2.7670 n         1 MOL     -0.288473
     20 C7         -0.8450   -2.0420    2.4150 c3        1 MOL     -0.017195
     21 C8         -0.6530   -3.0120    1.2470 c         1 MOL      0.422811
     22 O5         -1.2350   -4.0670    1.1740 o         1 MOL     -0.488337
     23 C9         -0.0540   -2.4660    3.6500 c3        1 MOL     -0.225284
     24 C10        -0.0110   -1.4500    4.7930 c3        1 MOL      0.179312
     25 C11         1.0760   -1.7800    5.8960 c3        1 MOL     -0.329699
     26 C12         2.5490   -1.8170    5.3500 c3        1 MOL      0.153658
     27 N3          3.5790   -2.0350    6.4220 n4        1 MOL     -0.472017
     28 H8         -2.5360   -2.4170    3.6430 hn        1 MOL      0.222203
     29 H9         -0.6300   -1.0690    1.9870 h1        1 MOL      0.104411
     30 H10         0.9840   -2.6020    3.3460 hc        1 MOL      0.085464
     31 H11        -0.3930   -3.4300    4.0380 hc        1 MOL      0.085464
     32 H12        -1.0000   -1.3040    5.2290 hc        1 MOL      0.012984
     33 H13         0.1370   -0.4940    4.2820 hc        1 MOL      0.012984
     34 H14         0.7960   -2.6980    6.4200 hc        1 MOL      0.098976
     35 H15         0.9840   -1.0120    6.6560 hc        1 MOL      0.098976
     36 H16         2.7140   -0.8910    4.8140 hx        1 MOL      0.082722
     37 H17         2.6370   -2.5220    4.5270 hx        1 MOL      0.082722
     38 H18         3.3700   -1.5130    7.2610 hn        1 MOL      0.353305
     39 H19         3.5880   -3.0050    6.7020 hn        1 MOL      0.353305
     40 H20         4.5110   -1.7680    6.1280 hn        1 MOL      0.353305
     41 N4          0.1720   -2.7760    0.1840 n         1 MOL     -0.203318
     42 C13         0.8730   -1.5400   -0.2770 c3        1 MOL     -0.064336
     43 C14         1.5440   -0.6620    0.8440 c         1 MOL      0.119165
     44 O6          0.9900    0.3660    1.2960 o         1 MOL     -0.386933
     45 C15        -0.0690   -0.7420   -1.2200 c3        1 MOL     -0.019479
     46 C16        -0.9330   -1.4850   -2.2150 c         1 MOL      0.434098
     47 O7         -0.8230   -2.6680   -2.5050 o         1 MOL     -0.699525
     48 O8         -1.7220   -0.8020   -2.9290 o         1 MOL     -0.699525
     49 H21         0.2530   -3.5850   -0.4150 hn        1 MOL      0.213434
     50 H22         1.6370   -1.8290   -1.0060 h1        1 MOL      0.068866
     51 H23         0.5770    0.0100   -1.6780 hc        1 MOL      0.088637
     52 H24        -0.7010   -0.1640   -0.5470 hc        1 MOL      0.088637
     53 N5          2.7190   -1.0610    1.3750 n         1 MOL     -0.046926
     54 C17         3.4610   -2.2780    1.1580 c3        1 MOL      0.078557
     55 C18         4.5320   -2.4800    2.1060 c         1 MOL      0.574928
     56 O9          4.3620   -1.9570    3.1570 o         1 MOL     -0.563080
     57 H25         3.0610   -0.5410    2.1790 hn        1 MOL      0.201395
     58 H26         3.8190   -2.0760    0.1460 h1        1 MOL     -0.032088
     59 H27         2.8240   -3.1630    1.0690 h1        1 MOL     -0.032088
     60 N6          5.6140   -3.2780    1.7860 n         1 MOL     -0.426339
     61 C19         5.8650   -3.9850    0.5100 c3        1 MOL     -0.025023
     62 C20         6.5420   -3.0230   -0.5050 c         1 MOL      0.452670
     63 O10         7.3340   -2.1230   -0.1510 o         1 MOL     -0.438153
     64 C21         6.7350   -5.2140    0.7460 c3        1 MOL     -0.126058
     65 C22         8.0320   -4.8870    1.4540 c         1 MOL      0.699886
     66 O11         9.0730   -4.9340    0.7860 o         1 MOL     -0.679364
     67 O12         8.0300   -4.7140    2.7160 o         1 MOL     -0.679364
     68 H28         6.2400   -3.3840    2.5710 hn        1 MOL      0.236247
     69 H29         4.9020   -4.3440    0.1600 h1        1 MOL      0.058949
     70 H30         6.8290   -5.7180   -0.2130 hc        1 MOL      0.024049
     71 H31         6.0770   -5.8680    1.3160 hc        1 MOL      0.024049
     72 N7          6.4260   -3.1950   -1.7710 n         1 MOL     -0.229893
     73 C23         6.9510   -2.4740   -2.9280 c3        1 MOL     -0.322424
     74 C24         6.5440   -0.9950   -3.1520 c         1 MOL      0.589345
     75 O13         7.3260   -0.3010   -3.7650 o         1 MOL     -0.540261
     76 H32         5.8490   -3.9830   -2.0640 hn        1 MOL      0.205041
     77 H33         6.6380   -2.9740   -3.8340 h1        1 MOL      0.163760
     78 H34         8.0450   -2.4690   -2.9560 h1        1 MOL      0.163760
     79 N8          5.3210   -0.5850   -2.7310 n         1 MOL     -0.487851
     80 C25         4.7720    0.8400   -2.6970 c3        1 MOL      0.147183
     81 C26         5.1290    1.4720   -1.3860 c         1 MOL      0.618240
     82 O14         4.9950    0.8480   -0.3140 o         1 MOL     -0.571089
     83 C27         3.2590    0.8410   -2.8650 c3        1 MOL      0.377691
     84 C28         2.6480    0.1350   -4.1410 c3        1 MOL     -0.282176
     85 O15         2.9440    2.2620   -2.7870 oh        1 MOL     -0.614762
     86 H35         4.9610   -1.2730   -2.0800 hn        1 MOL      0.192265
     87 H36         5.2020    1.3070   -3.5900 h1        1 MOL      0.053951
     88 H37         2.8820    0.4030   -1.9420 h1        1 MOL      0.081394
     89 H38         2.1530    2.3150   -2.2540 ho        1 MOL      0.317126
     90 H39         2.8820   -0.9290   -4.1120 hc        1 MOL      0.063673
     91 H40         1.5810    0.0720   -3.9580 hc        1 MOL      0.063673
     92 H41         2.9340    0.5970   -5.0930 hc        1 MOL      0.063673
     93 N9          5.5580    2.7310   -1.3170 n         1 MOL     -0.539528
     94 C29         5.8590    3.4180   -0.0740 c3        1 MOL      0.077630
     95 C30         4.5410    3.8830    0.6350 c         1 MOL      0.429424
     96 O16         4.5040    4.2690    1.7760 o         1 MOL     -0.524217
     97 C31         6.7850    4.6130   -0.2740 c3        1 MOL      0.104031
     98 C32         7.3820    5.1570    1.0690 c3        1 MOL     -0.057182
     99 C33         6.0380    5.8170   -0.9580 c3        1 MOL     -0.121001
    100 C34         8.3240    4.2200    1.8560 c3        1 MOL     -0.433660
    101 H42         5.7600    3.2350   -2.1650 hn        1 MOL      0.288682
    102 H43         6.3690    2.8060    0.6820 h1        1 MOL      0.104019
    103 H44         7.5700    4.4290   -1.0000 hc        1 MOL      0.028086
    104 H45         6.5570    5.4740    1.6970 hc        1 MOL      0.061982
    105 H46         7.8510    6.1360    0.9470 hc        1 MOL      0.061982
    106 H47         5.7620    5.6010   -1.9810 hc        1 MOL      0.020784
    107 H48         5.1660    6.2020   -0.4370 hc        1 MOL      0.020784
    108 H49         6.7490    6.6380   -1.0560 hc        1 MOL      0.020784
    109 H50         8.9240    3.5430    1.2440 hc        1 MOL      0.118744
    110 H51         8.9310    4.7220    2.6200 hc        1 MOL      0.118744
    111 H52         7.6650    3.6240    2.4760 hc        1 MOL      0.118744
    112 N10         3.4860    3.8670   -0.1260 n         1 MOL     -0.213199
    113 C35         2.1540    4.5200    0.1590 c3        1 MOL      0.111436
    114 C36         0.9610    3.5690    0.0050 c         1 MOL      0.434432
    115 O17         0.9940    2.6700   -0.8180 o         1 MOL     -0.453370
    116 C37         1.8650    5.7180   -0.6720 c3        1 MOL      0.360953
    117 C38         2.1800    5.6420   -2.1590 c3        1 MOL     -0.255758
    118 O18         2.5230    6.8470   -0.1400 oh        1 MOL     -0.689480
    119 H53         3.6030    3.5610   -1.0850 hn        1 MOL      0.093378
    120 H54         2.3090    4.8080    1.1980 h1        1 MOL      0.083915
    121 H55         0.8110    6.0130   -0.6200 h1        1 MOL      0.001876
    122 H56         2.2700    7.6720   -0.5550 ho        1 MOL      0.421903
    123 H57         1.4430    4.9990   -2.6270 hc        1 MOL      0.063001
    124 H58         1.9110    6.6500   -2.4860 hc        1 MOL      0.063001
    125 H59         3.2040    5.3630   -2.3820 hc        1 MOL      0.063001
    126 N11        -0.0770    3.6850    0.8370 n         1 MOL     -0.507164
    127 C39        -1.1850    2.7570    0.9840 c3        1 MOL      0.135946
    128 C40        -2.4360    3.2570    0.1730 c         1 MOL      0.594671
    129 O19        -2.6090    4.4410   -0.0040 o         1 MOL     -0.606513
    130 C41        -1.5580    2.5390    2.4040 c3        1 MOL      0.357523
    131 C42        -2.0970    3.8430    3.0970 c3        1 MOL     -0.434109
    132 O20        -0.4140    2.0650    3.0510 oh        1 MOL     -0.624646
    133 H60        -0.2070    4.5420    1.3540 hn        1 MOL      0.262003
    134 H61        -0.8980    1.7980    0.5520 h1        1 MOL     -0.059443
    135 H62        -2.2740    1.7190    2.3450 h1        1 MOL      0.048566
    136 H63         0.0660    1.5320    2.4130 ho        1 MOL      0.363137
    137 H64        -2.4490    3.5760    4.0950 hc        1 MOL      0.126717
    138 H65        -1.4480    4.7090    3.1670 hc        1 MOL      0.126717
    139 H66        -3.0040    4.1400    2.5620 hc        1 MOL      0.126717
    140 N12        -3.2850    2.3320   -0.0700 n         1 MOL     -0.432966
    141 C43        -4.6660    2.5690   -0.5230 c3        1 MOL      0.095349
    142 C44        -5.3500    1.4280   -1.2170 c         1 MOL      0.615736
    143 O21        -6.1420    1.8020   -2.0970 o         1 MOL     -0.650688
    144 C45        -5.4750    3.0240    0.6940 c3        1 MOL      0.268246
    145 C46        -6.8950    3.5430    0.4480 c3        1 MOL     -0.014431
    146 C47        -6.9220    4.8100   -0.4180 c3        1 MOL     -0.091049
    147 C48        -6.2210    6.0320    0.2600 c3        1 MOL      0.048081
    148 N13        -6.0740    7.0800   -0.7580 n4        1 MOL     -0.408390
    149 H67        -2.9960    1.4050    0.1920 hn        1 MOL      0.142570
    150 H68        -4.5640    3.3670   -1.2500 h1        1 MOL      0.041636
    151 H69        -4.9370    3.7550    1.2930 hc        1 MOL     -0.133647
    152 H70        -5.5410    2.0880    1.2570 hc        1 MOL     -0.133647
    153 H71        -7.3110    3.7600    1.4380 hc        1 MOL      0.040840
    154 H72        -7.5320    2.7480    0.0570 hc        1 MOL      0.040840
    155 H73        -7.9430    5.0970   -0.6790 hc        1 MOL      0.034311
    156 H74        -6.5230    4.6030   -1.4100 hc        1 MOL      0.034311
    157 H75        -5.2440    5.6650    0.6010 hx        1 MOL      0.089500
    158 H76        -6.8680    6.3230    1.0840 hx        1 MOL      0.089500
    159 H77        -6.9440    7.5640   -0.9580 hn        1 MOL      0.328131
    160 H78        -5.4890    7.8110   -0.3950 hn        1 MOL      0.328131
    161 H79        -5.6400    6.6990   -1.5900 hn        1 MOL      0.328131
    162 N14        -5.0550    0.1620   -0.9690 n         1 MOL     -0.352943
    163 C49        -5.6970   -1.0390   -1.5800 c3        1 MOL     -0.088541
    164 C50        -7.1940   -1.2370   -0.9950 c         1 MOL      0.291085
    165 O22        -7.4480   -1.1390    0.2390 o         1 MOL     -0.451111
    166 C51        -4.8420   -2.3380   -1.2290 c3        1 MOL      0.166617
    167 C52        -5.2360   -3.6720   -1.8610 c3        1 MOL     -0.485494
    168 C53        -5.1940   -3.5290   -3.3850 c         1 MOL      0.704507
    169 O23        -4.0870   -3.3380   -3.9160 o         1 MOL     -0.742488
    170 O24        -6.2540   -3.5060   -3.9930 o         1 MOL     -0.742488
    171 H80        -4.2630   -0.0690   -0.3820 hn        1 MOL      0.226086
    172 H81        -5.7850   -0.8810   -2.6540 h1        1 MOL      0.177648
    173 H82        -4.8450   -2.4330   -0.1450 hc        1 MOL      0.053986
    174 H83        -3.8000   -2.2490   -1.5490 hc        1 MOL      0.053986
    175 H84        -6.3010   -3.8240   -1.6970 hc        1 MOL      0.152642
    176 H85        -4.7600   -4.5590   -1.4440 hc        1 MOL      0.152642
    177 N15        -8.1640   -1.3520   -1.8970 n         1 MOL     -0.240920
    178 C54        -9.5910   -1.6800   -1.5700 c3        1 MOL     -0.039921
    179 H86        -9.7200   -1.6990   -0.4880 h1        1 MOL      0.057952
    180 H87       -10.2470   -0.9220   -2.0000 h1        1 MOL      0.057952
    181 H88        -9.8450   -2.6560   -1.9840 h1        1 MOL      0.057952
    182 H89        -7.9830   -1.2350   -2.8820 hn        1 MOL      0.281485
    183 Ca1        -1.7650   -2.8410   -4.9030 Ca        1 MOL      1.679393
    184 O25         0.6090   -4.2080   -5.2370 oh        1 MOL     -0.808310
    185 H90         0.5220   -4.5160   -4.3350 ho        1 MOL      0.408987
    186 H91         1.5410   -4.0350   -5.3360 ho        1 MOL      0.408987
    187 O26        -0.3290   -1.0560   -6.2370 oh        1 MOL     -0.808310
    188 H92         0.3190   -0.3640   -6.2700 ho        1 MOL      0.408987
    189 H93        -0.2790   -1.4760   -7.0970 ho        1 MOL      0.408987
    190 O27        -3.2530   -1.1050   -6.0940 oh        1 MOL     -0.808310
    191 H94        -4.0170   -0.5610   -5.9190 ho        1 MOL      0.408987
    192 H95        -3.1890   -1.1450   -7.0450 ho        1 MOL      0.408987
@<TRIPOS>BOND
     1    1    2 1   
     2    1    4 1   
     3    1    5 1   
     4    1    6 1   
     5    2    3 2   
     6    2    7 1   
     7    7    8 1   
     8    7   15 1   
     9    8    9 1   
    10    8   11 1   
    11    8   16 1   
    12    9   10 2   
    13    9   19 1   
    14   11   12 1   
    15   11   17 1   
    16   11   18 1   
    17   12   13 1   
    18   12   14 1   
    19   19   20 1   
    20   19   28 1   
    21   20   21 1   
    22   20   23 1   
    23   20   29 1   
    24   21   22 2   
    25   21   41 1   
    26   23   24 1   
    27   23   30 1   
    28   23   31 1   
    29   24   25 1   
    30   24   32 1   
    31   24   33 1   
    32   25   26 1   
    33   25   34 1   
    34   25   35 1   
    35   26   27 1   
    36   26   36 1   
    37   26   37 1   
    38   27   38 1   
    39   27   39 1   
    40   27   40 1   
    41   41   42 1   
    42   41   49 1   
    43   42   43 1   
    44   42   45 1   
    45   42   50 1   
    46   43   44 2   
    47   43   53 1   
    48   45   46 1   
    49   45   51 1   
    50   45   52 1   
    51   46   47 1   
    52   46   48 1   
    53   53   54 1   
    54   53   57 1   
    55   54   55 1   
    56   54   58 1   
    57   54   59 1   
    58   55   56 2   
    59   55   60 1   
    60   60   61 1   
    61   60   68 1   
    62   61   62 1   
    63   61   64 1   
    64   61   69 1   
    65   62   63 2   
    66   62   72 1   
    67   64   65 1   
    68   64   70 1   
    69   64   71 1   
    70   65   66 1   
    71   65   67 1   
    72   72   73 1   
    73   72   76 1   
    74   73   74 1   
    75   73   77 1   
    76   73   78 1   
    77   74   75 2   
    78   74   79 1   
    79   79   80 1   
    80   79   86 1   
    81   80   81 1   
    82   80   83 1   
    83   80   87 1   
    84   81   82 2   
    85   81   93 1   
    86   83   84 1   
    87   83   85 1   
    88   83   88 1   
    89   84   90 1   
    90   84   91 1   
    91   84   92 1   
    92   85   89 1   
    93   93   94 1   
    94   93  101 1   
    95   94   95 1   
    96   94   97 1   
    97   94  102 1   
    98   95   96 2   
    99   95  112 1   
   100   97   98 1   
   101   97   99 1   
   102   97  103 1   
   103   98  100 1   
   104   98  104 1   
   105   98  105 1   
   106   99  106 1   
   107   99  107 1   
   108   99  108 1   
   109  100  109 1   
   110  100  110 1   
   111  100  111 1   
   112  112  113 1   
   113  112  119 1   
   114  113  114 1   
   115  113  116 1   
   116  113  120 1   
   117  114  115 2   
   118  114  126 1   
   119  116  117 1   
   120  116  118 1   
   121  116  121 1   
   122  117  123 1   
   123  117  124 1   
   124  117  125 1   
   125  118  122 1   
   126  126  127 1   
   127  126  133 1   
   128  127  128 1   
   129  127  130 1   
   130  127  134 1   
   131  128  129 2   
   132  128  140 1   
   133  130  131 1   
   134  130  132 1   
   135  130  135 1   
   136  131  137 1   
   137  131  138 1   
   138  131  139 1   
   139  132  136 1   
   140  140  141 1   
   141  140  149 1   
   142  141  142 1   
   143  141  144 1   
   144  141  150 1   
   145  142  143 2   
   146  142  162 1   
   147  144  145 1   
   148  144  151 1   
   149  144  152 1   
   150  145  146 1   
   151  145  153 1   
   152  145  154 1   
   153  146  147 1   
   154  146  155 1   
   155  146  156 1   
   156  147  148 1   
   157  147  157 1   
   158  147  158 1   
   159  148  159 1   
   160  148  160 1   
   161  148  161 1   
   162  162  163 1   
   163  162  171 1   
   164  163  164 1   
   165  163  166 1   
   166  163  172 1   
   167  164  165 2   
   168  164  177 1   
   169  166  167 1   
   170  166  173 1   
   171  166  174 1   
   172  167  168 1   
   173  167  175 1   
   174  167  176 1   
   175  168  169 1   
   176  168  170 1   
   177  177  178 1   
   178  177  182 1   
   179  178  179 1   
   180  178  180 1   
   181  178  181 1   
   182  184  185 1   
   183  184  186 1   
   184  187  188 1   
   185  187  189 1   
   186  190  191 1   
   187  190  192 1   
@<TRIPOS>SUBSTRUCTURE
     1 MOL         1 TEMP              0 ****  ****    0 ROOT
