@<TRIPOS>MOLECULE
MOL
  201   193     1     0     0
SMALL
resp


@<TRIPOS>ATOM
      1 C1         -1.6840    8.5500   -1.9980 c3        1 MOL     -0.380140
      2 C2         -0.4570    7.9350   -1.3700 c         1 MOL      0.664296
      3 O1          0.4600    8.6920   -0.9170 o         1 MOL     -0.603934
      4 H1         -2.4620    7.7910   -2.0930 hc        1 MOL      0.106328
      5 H2         -2.0470    9.3630   -1.3700 hc        1 MOL      0.106328
      6 H3         -1.4330    8.9370   -2.9860 hc        1 MOL      0.106328
      7 N1         -0.2840    6.5960   -1.2400 n         1 MOL     -0.540383
      8 C3          0.6210    6.1460   -0.2660 c3        1 MOL     -0.000286
      9 C4          1.1360    4.7610   -0.7010 c         1 MOL      0.470158
     10 O2          0.3540    3.9990   -1.2880 o         1 MOL     -0.574825
     11 C5         -0.1090    6.0850    1.1040 c3        1 MOL     -0.037337
     12 C6         -1.4350    5.2570    1.0550 c         1 MOL      0.611273
     13 O3         -1.6820    4.3330    1.8430 o         1 MOL     -0.680275
     14 O4         -2.3370    5.6500    0.2650 o         1 MOL     -0.680275
     15 H4         -0.9270    5.9680   -1.7100 hn        1 MOL      0.334541
     16 H5          1.5330    6.7400   -0.1980 h1        1 MOL      0.070067
     17 H6         -0.3380    7.0770    1.4880 hc        1 MOL      0.048104
     18 H7          0.5960    5.6520    1.8140 hc        1 MOL      0.048104
     19 N2          2.4500    4.4070   -0.5800 n         1 MOL     -0.311477
     20 C7          3.0710    3.0880   -0.7480 c3        1 MOL      0.237315
     21 C8          3.5700    2.4710    0.6400 c         1 MOL      0.594698
     22 O5          4.6580    2.8170    1.0870 o         1 MOL     -0.550995
     23 C9          4.0570    3.0950   -1.9090 c3        1 MOL     -0.207607
     24 C10         5.2770    4.0790   -1.7920 c3        1 MOL     -0.007296
     25 C11         6.5460    3.5750   -2.5390 c3        1 MOL     -0.080838
     26 C12         7.6530    4.6170   -2.3800 c3        1 MOL      0.191713
     27 N3          8.9340    4.2530   -2.8820 n4        1 MOL     -0.427743
     28 H8          3.0780    5.0540   -0.1380 hn        1 MOL      0.248529
     29 H9          2.2420    2.4550   -1.0350 h1        1 MOL     -0.073053
     30 H10         3.5990    3.4550   -2.8230 hc        1 MOL      0.069062
     31 H11         4.3540    2.0600   -2.0260 hc        1 MOL      0.069062
     32 H12         5.5360    4.1780   -0.7400 hc        1 MOL      0.008557
     33 H13         4.9740    5.0820   -2.0970 hc        1 MOL      0.008557
     34 H14         6.4100    3.2840   -3.5880 hc        1 MOL      0.023951
     35 H15         6.8730    2.7030   -1.9650 hc        1 MOL      0.023951
     36 H16         7.6840    4.8400   -1.3140 hx        1 MOL      0.051582
     37 H17         7.3430    5.5520   -2.8480 hx        1 MOL      0.051582
     38 H18         9.2520    3.3800   -2.4650 hn        1 MOL      0.339521
     39 H19         8.9560    4.1650   -3.8830 hn        1 MOL      0.339521
     40 H20         9.6480    4.9070   -2.5930 hn        1 MOL      0.339521
     41 N4          2.7100    1.7930    1.3550 n         1 MOL     -0.557682
     42 C13         3.0630    1.3710    2.7310 c3        1 MOL      0.301721
     43 C14         2.1420    0.1800    3.0760 c         1 MOL      0.307277
     44 O6          0.9590    0.1870    2.6520 o         1 MOL     -0.587528
     45 C15         2.8990    2.4560    3.8300 c3        1 MOL     -0.347736
     46 C16         1.7100    3.3900    3.7940 c         1 MOL      0.686371
     47 O7          1.8660    4.5630    4.0290 o         1 MOL     -0.667441
     48 O8          0.5860    2.9900    3.5750 o         1 MOL     -0.667441
     49 H21         1.8160    1.4930    0.9710 hn        1 MOL      0.320634
     50 H22         4.1030    1.0580    2.7230 h1        1 MOL      0.015499
     51 H23         3.7620    3.1060    3.7150 hc        1 MOL      0.091331
     52 H24         2.9570    1.8830    4.7470 hc        1 MOL      0.091331
     53 N5          2.5750   -0.9200    3.6950 n         1 MOL     -0.208368
     54 C17         3.9220   -1.1440    4.2420 c3        1 MOL     -0.151869
     55 C18         4.8810   -1.6410    3.1320 c         1 MOL      0.751591
     56 O9          4.7150   -1.3310    1.9470 o         1 MOL     -0.593671
     57 H25         1.8420   -1.5650    3.9410 hn        1 MOL      0.252262
     58 H26         3.7930   -2.0150    4.8900 h1        1 MOL      0.066394
     59 H27         4.2450   -0.2630    4.7970 h1        1 MOL      0.066394
     60 N6          5.9280   -2.3600    3.5380 n         1 MOL     -0.554486
     61 C19         7.0130   -2.6720    2.6100 c3        1 MOL     -0.038959
     62 C20         6.7300   -3.6220    1.4210 c         1 MOL      0.491799
     63 O10         7.6640   -3.8600    0.6500 o         1 MOL     -0.515479
     64 C21         8.1460   -3.2650    3.5170 c3        1 MOL     -0.446402
     65 C22         7.9490   -4.5610    4.2280 c         1 MOL      0.897411
     66 O11         6.7830   -5.0950    4.3980 o         1 MOL     -0.755208
     67 O12         8.8940   -5.0750    4.7830 o         1 MOL     -0.755208
     68 H28         6.0780   -2.4870    4.5340 hn        1 MOL      0.307510
     69 H29         7.3980   -1.7290    2.2170 h1        1 MOL      0.128209
     70 H30         8.4250   -2.5950    4.3310 hc        1 MOL      0.123574
     71 H31         9.0240   -3.5200    2.9390 hc        1 MOL      0.123574
     72 N7          5.4800   -4.0720    1.1310 n         1 MOL     -0.243798
     73 C23         5.0180   -5.0710    0.0810 c3        1 MOL     -0.165400
     74 C24         4.6400   -4.3860   -1.1750 c         1 MOL      0.632948
     75 O13         3.8240   -4.9320   -1.9030 o         1 MOL     -0.580461
     76 H32         4.7760   -3.6590    1.7350 hn        1 MOL      0.172121
     77 H33         4.1930   -5.6680    0.4840 h1        1 MOL      0.121426
     78 H34         5.8350   -5.7670   -0.1290 h1        1 MOL      0.121426
     79 N8          5.2090   -3.2090   -1.4860 n         1 MOL     -0.472444
     80 C25         5.0040   -2.3850   -2.7030 c3        1 MOL      0.186624
     81 C26         4.0860   -1.1920   -2.5250 c         1 MOL      0.516201
     82 O14         4.2200   -0.3540   -1.6390 o         1 MOL     -0.477406
     83 C27         6.3230   -2.1080   -3.4460 c3        1 MOL      0.243732
     84 C28         7.2170   -1.3030   -2.5990 c3        1 MOL     -0.270576
     85 O15         7.0090   -3.2790   -3.6200 oh        1 MOL     -0.575670
     86 H35         5.6870   -2.7420   -0.7340 hn        1 MOL      0.250657
     87 H36         4.3980   -2.9410   -3.4160 h1        1 MOL      0.000933
     88 H37         6.1530   -1.7020   -4.4400 h1        1 MOL      0.011876
     89 H38         6.5750   -3.9280   -4.1700 ho        1 MOL      0.389619
     90 H39         6.6970   -0.3760   -2.3520 hc        1 MOL      0.083382
     91 H40         7.3800   -1.7080   -1.5980 hc        1 MOL      0.083382
     92 H41         8.1850   -1.0880   -3.0610 hc        1 MOL      0.083382
     93 N9          3.0630   -1.0640   -3.3800 n         1 MOL     -0.673464
     94 C29         1.9390   -0.0810   -3.2240 c3        1 MOL     -0.053672
     95 C30         0.8060   -0.5910   -2.3240 c         1 MOL      0.490652
     96 O16         0.2890    0.1730   -1.4540 o         1 MOL     -0.528606
     97 C31         1.4180    0.2770   -4.6140 c3        1 MOL      0.057037
     98 C32         2.5050    0.5330   -5.6750 c3        1 MOL     -0.045907
     99 C33         0.3480    1.4260   -4.5300 c3        1 MOL     -0.252573
    100 C34         3.4670    1.7020   -5.4670 c3        1 MOL     -0.061194
    101 H42         2.8980   -1.8450   -4.0010 hn        1 MOL      0.336327
    102 H43         2.2850    0.8290   -2.7320 h1        1 MOL      0.238328
    103 H44         0.8030   -0.5110   -5.0610 hc        1 MOL      0.044270
    104 H45         2.0030    0.6130   -6.6340 hc        1 MOL      0.019662
    105 H46         3.1250   -0.3380   -5.8750 hc        1 MOL      0.019662
    106 H47        -0.5120    1.2630   -3.8790 hc        1 MOL      0.083066
    107 H48         0.8370    2.3520   -4.2470 hc        1 MOL      0.083066
    108 H49        -0.1920    1.4330   -5.4800 hc        1 MOL      0.083066
    109 H50         3.8900    2.1460   -6.3710 hc        1 MOL      0.021124
    110 H51         2.9030    2.4760   -4.9510 hc        1 MOL      0.021124
    111 H52         4.4090    1.3360   -5.0600 hc        1 MOL      0.021124
    112 N10         0.5260   -1.9290   -2.3880 n         1 MOL     -0.417178
    113 C35        -0.1420   -2.7320   -1.3280 c3        1 MOL     -0.044218
    114 C36        -1.1570   -3.7470   -1.9460 c         1 MOL      0.517934
    115 O17        -0.7320   -4.6470   -2.6190 o         1 MOL     -0.500642
    116 C37         0.7920   -3.4220   -0.3110 c3        1 MOL      0.477875
    117 C38         1.8120   -2.4470    0.4770 c3        1 MOL     -0.609411
    118 O18        -0.0480   -3.9250    0.7470 oh        1 MOL     -0.665695
    119 H53         0.9060   -2.3960   -3.1990 hn        1 MOL      0.288452
    120 H54        -0.7030   -1.9620   -0.7960 h1        1 MOL      0.101738
    121 H55         1.3690   -4.2240   -0.7580 h1        1 MOL     -0.023108
    122 H56         0.4670   -4.6190    1.1680 ho        1 MOL      0.401648
    123 H57         1.2460   -1.5960    0.8620 hc        1 MOL      0.185804
    124 H58         2.1840   -3.0430    1.3150 hc        1 MOL      0.185804
    125 H59         2.4770   -1.9780   -0.2380 hc        1 MOL      0.185804
    126 N11        -2.4710   -3.7570   -1.5550 n         1 MOL     -0.449914
    127 C39        -3.5020   -4.6670   -2.0060 c3        1 MOL      0.030035
    128 C40        -4.8580   -3.9330   -2.1650 c         1 MOL      0.728357
    129 O19        -5.3770   -3.9190   -3.2440 o         1 MOL     -0.564153
    130 C41        -3.6240   -5.9900   -1.2120 c3        1 MOL      0.276135
    131 C42        -4.6420   -6.9110   -1.8390 c3        1 MOL     -0.395791
    132 O20        -4.0810   -5.8380    0.0660 oh        1 MOL     -0.651727
    133 H60        -2.7070   -3.1090   -0.8150 hn        1 MOL      0.248475
    134 H61        -3.2980   -5.0910   -2.9930 h1        1 MOL      0.079321
    135 H62        -2.6590   -6.5040   -1.1660 h1        1 MOL      0.060090
    136 H63        -4.0300   -6.6920    0.5110 ho        1 MOL      0.417350
    137 H64        -5.6460   -6.5100   -1.6970 hc        1 MOL      0.097894
    138 H65        -4.5990   -7.0000   -2.9290 hc        1 MOL      0.097894
    139 H66        -4.5820   -7.9400   -1.4690 hc        1 MOL      0.097894
    140 N12        -5.3010   -3.2860   -1.0850 n         1 MOL     -0.780115
    141 C43        -6.5920   -2.4660   -1.1110 c3        1 MOL      0.242753
    142 C44        -6.3990   -1.1090   -0.4910 c         1 MOL      0.662870
    143 O21        -5.4900   -0.8930    0.2500 o         1 MOL     -0.598318
    144 C45        -7.6560   -3.3400   -0.4460 c3        1 MOL     -0.090292
    145 C46        -9.0570   -3.0570   -0.8020 c3        1 MOL     -0.082662
    146 C47        -9.8520   -4.2790   -0.2330 c3        1 MOL      0.042662
    147 C48       -10.3720   -4.1440    1.2460 c3        1 MOL     -0.061694
    148 N13       -11.1630   -5.3540    1.5190 n4        1 MOL     -0.202489
    149 H67        -4.7670   -3.2480   -0.2260 hn        1 MOL      0.374422
    150 H68        -6.8370   -2.2740   -2.1570 h1        1 MOL      0.053163
    151 H69        -7.6080   -3.5270    0.6250 hc        1 MOL      0.048508
    152 H70        -7.5030   -4.3180   -0.8860 hc        1 MOL      0.048508
    153 H71        -9.2200   -3.0290   -1.8840 hc        1 MOL      0.050748
    154 H72        -9.3890   -2.1380   -0.3170 hc        1 MOL      0.050748
    155 H73        -9.4190   -5.2790   -0.2970 hc        1 MOL      0.015900
    156 H74       -10.7610   -4.3510   -0.8360 hc        1 MOL      0.015900
    157 H75       -10.9750   -3.2350    1.2830 hx        1 MOL      0.115254
    158 H76        -9.5490   -4.0110    1.9410 hx        1 MOL      0.115254
    159 H77       -11.4860   -5.3700    2.4710 hn        1 MOL      0.257933
    160 H78       -11.7600   -5.6960    0.7860 hn        1 MOL      0.257933
    161 H79       -10.5670   -6.1640    1.5900 hn        1 MOL      0.257933
    162 N14        -7.2050   -0.1330   -0.7640 n         1 MOL     -0.679007
    163 C49        -7.0750    1.2240   -0.1880 c3        1 MOL      0.411856
    164 C50        -5.7630    1.8980   -0.5200 c         1 MOL      0.332272
    165 O22        -5.2310    2.6090    0.3580 o         1 MOL     -0.493763
    166 C51        -8.3110    2.1000   -0.6140 c3        1 MOL     -0.021427
    167 C52        -8.7550    3.1870    0.3400 c3        1 MOL     -0.184484
    168 C53        -9.3600    2.5420    1.6210 c         1 MOL      0.640841
    169 O23       -10.6030    2.5560    1.6960 o         1 MOL     -0.656659
    170 O24        -8.5920    2.1280    2.5620 o         1 MOL     -0.656659
    171 H80        -7.8230   -0.2180   -1.5610 hn        1 MOL      0.285721
    172 H81        -7.1090    1.1380    0.8950 h1        1 MOL      0.004679
    173 H82        -9.1720    1.4880   -0.8780 hc        1 MOL     -0.001382
    174 H83        -8.0370    2.6050   -1.5360 hc        1 MOL     -0.001382
    175 H84        -9.4570    3.7720   -0.2430 hc        1 MOL      0.067134
    176 H85        -7.8660    3.7690    0.5900 hc        1 MOL      0.067134
    177 N15        -5.2690    2.0350   -1.7840 n         1 MOL     -0.367023
    178 C54        -6.0370    1.9000   -3.0250 c3        1 MOL      0.149362
    179 H86        -7.0050    1.4500   -2.8060 h1        1 MOL      0.002574
    180 H87        -6.1870    2.8840   -3.4690 h1        1 MOL      0.002574
    181 H88        -5.4920    1.2650   -3.7240 h1        1 MOL      0.002574
    182 H89        -4.3780    2.5090   -1.8620 hn        1 MOL      0.284356
    183 Ca1        -1.4030    1.7250    2.6330 Ca        1 MOL      1.741529
    184 O25        -3.9890    1.2430    3.2420 oh        1 MOL     -0.832159
    185 H90        -4.8100    1.3000    2.7510 ho        1 MOL      0.409493
    186 H91        -4.1510    0.6040    3.9240 ho        1 MOL      0.409493
    187 O26        -0.1250    1.9930    0.3260 oh        1 MOL     -0.832159
    188 H92        -0.0710    2.8250   -0.1440 ho        1 MOL      0.409493
    189 H93        -0.0470    1.3290   -0.3540 ho        1 MOL      0.409493
    190 O27        -1.9690   -0.7680    1.5530 oh        1 MOL     -0.832159
    191 H94        -2.3340   -1.5830    1.8880 ho        1 MOL      0.409493
    192 H95        -2.5120   -0.5580    0.7890 ho        1 MOL      0.409493
    193 O28        -2.0070    2.9300    5.0940 oh        1 MOL     -0.832159
    194 H96        -2.6610    3.5000    5.5020 ho        1 MOL      0.409493
    195 H97        -1.6440    2.4370    5.8230 ho        1 MOL      0.409493
    196 O29        -1.3910   -0.0090    4.6990 oh        1 MOL     -0.832159
    197 H98        -1.9470   -0.7800    4.6410 ho        1 MOL      0.409493
    198 H99        -0.7170   -0.2330    5.3390 ho        1 MOL      0.409493
    199 O30        -2.8160    1.4150    0.1850 oh        1 MOL     -0.832159
    200 H100       -2.3260    2.0320   -0.3610 ho        1 MOL      0.409493
    201 H101       -3.7070    1.7540    0.2040 ho        1 MOL      0.409493
@<TRIPOS>BOND
     1    1    2 1   
     2    1    4 1   
     3    1    5 1   
     4    1    6 1   
     5    2    3 2   
     6    2    7 1   
     7    7    8 1   
     8    7   15 1   
     9    8    9 1   
    10    8   11 1   
    11    8   16 1   
    12    9   10 2   
    13    9   19 1   
    14   11   12 1   
    15   11   17 1   
    16   11   18 1   
    17   12   13 1   
    18   12   14 1   
    19   19   20 1   
    20   19   28 1   
    21   20   21 1   
    22   20   23 1   
    23   20   29 1   
    24   21   22 2   
    25   21   41 1   
    26   23   24 1   
    27   23   30 1   
    28   23   31 1   
    29   24   25 1   
    30   24   32 1   
    31   24   33 1   
    32   25   26 1   
    33   25   34 1   
    34   25   35 1   
    35   26   27 1   
    36   26   36 1   
    37   26   37 1   
    38   27   38 1   
    39   27   39 1   
    40   27   40 1   
    41   41   42 1   
    42   41   49 1   
    43   42   43 1   
    44   42   45 1   
    45   42   50 1   
    46   43   44 2   
    47   43   53 1   
    48   45   46 1   
    49   45   51 1   
    50   45   52 1   
    51   46   47 1   
    52   46   48 1   
    53   53   54 1   
    54   53   57 1   
    55   54   55 1   
    56   54   58 1   
    57   54   59 1   
    58   55   56 2   
    59   55   60 1   
    60   60   61 1   
    61   60   68 1   
    62   61   62 1   
    63   61   64 1   
    64   61   69 1   
    65   62   63 2   
    66   62   72 1   
    67   64   65 1   
    68   64   70 1   
    69   64   71 1   
    70   65   66 1   
    71   65   67 1   
    72   72   73 1   
    73   72   76 1   
    74   73   74 1   
    75   73   77 1   
    76   73   78 1   
    77   74   75 2   
    78   74   79 1   
    79   79   80 1   
    80   79   86 1   
    81   80   81 1   
    82   80   83 1   
    83   80   87 1   
    84   81   82 2   
    85   81   93 1   
    86   83   84 1   
    87   83   85 1   
    88   83   88 1   
    89   84   90 1   
    90   84   91 1   
    91   84   92 1   
    92   85   89 1   
    93   93   94 1   
    94   93  101 1   
    95   94   95 1   
    96   94   97 1   
    97   94  102 1   
    98   95   96 2   
    99   95  112 1   
   100   97   98 1   
   101   97   99 1   
   102   97  103 1   
   103   98  100 1   
   104   98  104 1   
   105   98  105 1   
   106   99  106 1   
   107   99  107 1   
   108   99  108 1   
   109  100  109 1   
   110  100  110 1   
   111  100  111 1   
   112  112  113 1   
   113  112  119 1   
   114  113  114 1   
   115  113  116 1   
   116  113  120 1   
   117  114  115 2   
   118  114  126 1   
   119  116  117 1   
   120  116  118 1   
   121  116  121 1   
   122  117  123 1   
   123  117  124 1   
   124  117  125 1   
   125  118  122 1   
   126  126  127 1   
   127  126  133 1   
   128  127  128 1   
   129  127  130 1   
   130  127  134 1   
   131  128  129 2   
   132  128  140 1   
   133  130  131 1   
   134  130  132 1   
   135  130  135 1   
   136  131  137 1   
   137  131  138 1   
   138  131  139 1   
   139  132  136 1   
   140  140  141 1   
   141  140  149 1   
   142  141  142 1   
   143  141  144 1   
   144  141  150 1   
   145  142  143 2   
   146  142  162 1   
   147  144  145 1   
   148  144  151 1   
   149  144  152 1   
   150  145  146 1   
   151  145  153 1   
   152  145  154 1   
   153  146  147 1   
   154  146  155 1   
   155  146  156 1   
   156  147  148 1   
   157  147  157 1   
   158  147  158 1   
   159  148  159 1   
   160  148  160 1   
   161  148  161 1   
   162  162  163 1   
   163  162  171 1   
   164  163  164 1   
   165  163  166 1   
   166  163  172 1   
   167  164  165 2   
   168  164  177 1   
   169  166  167 1   
   170  166  173 1   
   171  166  174 1   
   172  167  168 1   
   173  167  175 1   
   174  167  176 1   
   175  168  169 1   
   176  168  170 1   
   177  177  178 1   
   178  177  182 1   
   179  178  179 1   
   180  178  180 1   
   181  178  181 1   
   182  184  185 1   
   183  184  186 1   
   184  187  188 1   
   185  187  189 1   
   186  190  191 1   
   187  190  192 1   
   188  193  194 1   
   189  193  195 1   
   190  196  197 1   
   191  196  198 1   
   192  199  200 1   
   193  199  201 1   
@<TRIPOS>SUBSTRUCTURE
     1 MOL         1 TEMP              0 ****  ****    0 ROOT
