@<TRIPOS>MOLECULE
MOL
  181   177     1     0     0
SMALL
resp


@<TRIPOS>ATOM
      1 C1          1.3700    6.5340   -1.7840 c3        1 MOL     -0.306720
      2 C2          2.7710    6.2100   -1.3010 c         1 MOL      0.719982
      3 O1          3.2080    6.7850   -0.3130 o         1 MOL     -0.599698
      4 H1          0.6410    6.1020   -1.0980 hc        1 MOL      0.071986
      5 H2          1.2380    7.6150   -1.8200 hc        1 MOL      0.071986
      6 H3          1.2230    6.1160   -2.7800 hc        1 MOL      0.071986
      7 N1          3.5520    5.3600   -1.9910 n         1 MOL     -0.655231
      8 C3          4.7450    4.7050   -1.4900 c3        1 MOL      0.267119
      9 C4          4.4790    3.8560   -0.2570 c         1 MOL      0.634438
     10 O2          3.5920    2.9740   -0.3340 o         1 MOL     -0.605793
     11 C5          5.2520    3.8000   -2.6500 c3        1 MOL     -0.390959
     12 C6          6.5240    2.9860   -2.1860 c         1 MOL      0.697883
     13 O3          6.5550    1.7190   -2.3470 o         1 MOL     -0.716684
     14 O4          7.4480    3.6200   -1.6300 o         1 MOL     -0.716684
     15 H4          3.2250    5.2410   -2.9340 hn        1 MOL      0.320373
     16 H5          5.5010    5.4840   -1.3700 h1        1 MOL      0.023058
     17 H6          5.5160    4.5210   -3.4290 hc        1 MOL      0.072385
     18 H7          4.4700    3.1890   -3.0920 hc        1 MOL      0.072385
     19 N2          5.2270    4.0320    0.8170 n         1 MOL     -0.460385
     20 C7          5.0610    3.3490    2.0970 c3        1 MOL      0.361331
     21 C8          3.5990    3.3400    2.6450 c         1 MOL      0.350542
     22 O5          2.8220    4.2690    2.3290 o         1 MOL     -0.514233
     23 C9          5.9360    4.1860    3.0870 c3        1 MOL     -0.235961
     24 H8          5.9050    4.7810    0.8170 hn        1 MOL      0.256100
     25 H9          5.4210    2.3350    1.9310 h1        1 MOL      0.041466
     26 H10         5.6850    5.2380    3.2080 hc        1 MOL      0.059303
     27 H11         5.9360    3.7860    4.0960 hc        1 MOL      0.059303
     28 H12         6.9830    4.1020    2.7850 hc        1 MOL      0.059303
     29 N3          3.1140    2.3480    3.3880 n         1 MOL     -0.404489
     30 C10         3.8940    1.1130    3.6960 c3        1 MOL      0.024646
     31 C11         4.0890    0.2400    2.4680 c         1 MOL      0.230224
     32 O6          3.3270    0.3820    1.4830 o         1 MOL     -0.299461
     33 C12         3.2170    0.3500    4.9280 c3        1 MOL     -0.126993
     34 C13         1.7480   -0.1320    4.7550 c         1 MOL      0.621184
     35 O7          1.2110    0.0540    3.6110 o         1 MOL     -0.632953
     36 O8          1.1950   -0.6400    5.7930 o         1 MOL     -0.632953
     37 H13         2.2110    2.4700    3.8230 hn        1 MOL      0.354797
     38 H14         4.8810    1.4240    4.0270 h1        1 MOL      0.022527
     39 H15         3.1160    1.0780    5.7330 hc        1 MOL      0.031904
     40 H16         3.8150   -0.4910    5.2780 hc        1 MOL      0.031904
     41 N4          5.0150   -0.6910    2.5850 n         1 MOL     -0.382696
     42 C14         5.3320   -1.6440    1.4410 c3        1 MOL     -0.076470
     43 C15         6.3780   -1.0210    0.5410 c         1 MOL      0.554032
     44 O9          6.7760    0.0910    0.7360 o         1 MOL     -0.489934
     45 H17         5.6640   -0.5440    3.3500 hn        1 MOL      0.310005
     46 H18         4.4230   -1.9130    0.9170 h1        1 MOL      0.083601
     47 H19         5.7810   -2.5350    1.8710 h1        1 MOL      0.083601
     48 N5          6.9840   -1.7530   -0.3910 n         1 MOL     -0.374908
     49 C16         6.7830   -3.1420   -0.7690 c3        1 MOL     -0.164094
     50 C17         5.5960   -3.4040   -1.6860 c         1 MOL      0.590713
     51 O10         5.1520   -4.5600   -1.9040 o         1 MOL     -0.554595
     52 C18         8.1310   -3.5730   -1.5230 c3        1 MOL     -0.061745
     53 C19         9.4370   -3.4520   -0.7900 c         1 MOL      0.606056
     54 N6         10.5240   -3.0420   -1.3060 n         1 MOL     -0.726832
     55 O11         9.4260   -3.8400    0.3700 o         1 MOL     -0.566466
     56 H20         7.5940   -1.2180   -0.9830 hn        1 MOL      0.289200
     57 H21         6.6150   -3.7700    0.1040 h1        1 MOL      0.107953
     58 H22         8.2530   -2.9600   -2.4200 hc        1 MOL      0.038078
     59 H23         8.0220   -4.5450   -2.0140 hc        1 MOL      0.038078
     60 H24        10.5520   -2.8530   -2.2910 hn        1 MOL      0.361979
     61 H25        11.2930   -3.0100   -0.6570 hn        1 MOL      0.361979
     62 N7          5.0210   -2.3260   -2.1870 n         1 MOL     -0.302565
     63 C20         3.9920   -2.2740   -3.2560 c3        1 MOL     -0.294755
     64 C21         2.6170   -2.8370   -2.8890 c         1 MOL      0.687922
     65 O12         1.6950   -2.5790   -3.6630 o         1 MOL     -0.580942
     66 H26         5.2430   -1.4360   -1.7530 hn        1 MOL      0.249728
     67 H27         4.3330   -2.7620   -4.1660 h1        1 MOL      0.155627
     68 H28         3.7540   -1.2510   -3.5280 h1        1 MOL      0.155627
     69 N8          2.4740   -3.6180   -1.7760 n         1 MOL     -0.537854
     70 C22         1.2290   -4.3620   -1.3690 c3        1 MOL      0.065658
     71 C23         0.0790   -3.4040   -0.9490 c         1 MOL      0.588487
     72 O13         0.2680   -2.5750   -0.1030 o         1 MOL     -0.561848
     73 C24         1.5770   -5.3360   -0.2450 c3        1 MOL      0.441876
     74 C25         0.4240   -6.2020    0.2410 c3        1 MOL     -0.349343
     75 O14         2.6470   -6.1920   -0.6340 oh        1 MOL     -0.590651
     76 H29         3.3010   -3.7930   -1.2290 hn        1 MOL      0.260863
     77 H30         0.7770   -4.9450   -2.1730 h1        1 MOL      0.050155
     78 H31         1.8470   -4.7660    0.6500 h1        1 MOL     -0.019320
     79 H32         3.3260   -6.0110    0.0130 ho        1 MOL      0.354715
     80 H33         0.7170   -6.7310    1.1450 hc        1 MOL      0.080162
     81 H34        -0.3870   -5.5230    0.5430 hc        1 MOL      0.080162
     82 H35         0.0310   -6.9270   -0.4690 hc        1 MOL      0.080162
     83 N9         -1.1920   -3.7200   -1.4590 n         1 MOL     -0.299665
     84 C26        -2.4440   -3.0070   -1.2820 c3        1 MOL     -0.764749
     85 C27        -3.3000   -3.2310   -0.0590 c         1 MOL      1.024285
     86 O15        -3.6120   -4.3580    0.2010 o         1 MOL     -0.647919
     87 C28        -3.2190   -3.2730   -2.5980 c3        1 MOL      0.337907
     88 C29        -4.6130   -2.6240   -2.5410 c3        1 MOL      0.010880
     89 C30        -2.4590   -2.8210   -3.8160 c3        1 MOL     -0.112885
     90 C31        -5.4480   -2.8250   -3.7540 c3        1 MOL     -0.195044
     91 H36        -1.2590   -4.6250   -1.8990 hn        1 MOL      0.245993
     92 H37        -2.2640   -1.9350   -1.2610 h1        1 MOL      0.402970
     93 H38        -3.4670   -4.3070   -2.7960 hc        1 MOL     -0.017934
     94 H39        -4.5620   -1.5400   -2.4560 hc        1 MOL      0.032356
     95 H40        -5.2220   -3.1620   -1.8070 hc        1 MOL      0.032356
     96 H41        -2.4130   -1.7380   -3.8420 hc        1 MOL      0.012577
     97 H42        -1.4960   -3.3160   -3.9270 hc        1 MOL      0.012577
     98 H43        -3.0260   -3.2640   -4.6480 hc        1 MOL      0.012577
     99 H44        -5.2860   -3.8450   -4.1100 hc        1 MOL      0.027086
    100 H45        -6.5120   -2.6850   -3.5550 hc        1 MOL      0.027086
    101 H46        -5.1150   -2.0950   -4.4920 hc        1 MOL      0.027086
    102 N10        -3.7420   -2.1760    0.6480 n         1 MOL     -0.745317
    103 C32        -4.4950   -2.2710    1.8890 c3        1 MOL      0.098126
    104 C33        -5.4810   -1.1130    2.0440 c         1 MOL      0.539616
    105 O16        -6.1610   -1.0720    3.0260 o         1 MOL     -0.528358
    106 C34        -3.5460   -2.2950    3.1370 c3        1 MOL     -0.156901
    107 C35        -2.4160   -1.2530    3.0040 c         1 MOL      0.871279
    108 O17        -1.2320   -1.5770    2.6230 o         1 MOL     -0.774810
    109 O18        -2.6880   -0.0750    3.3700 o         1 MOL     -0.774810
    110 H47        -3.4720   -1.2820    0.2890 hn        1 MOL      0.269049
    111 H48        -5.1450   -3.1440    1.8360 h1        1 MOL      0.105563
    112 H49        -3.0850   -3.2840    3.1090 hc        1 MOL      0.016054
    113 H50        -4.0430   -2.1710    4.0920 hc        1 MOL      0.016054
    114 N11        -5.5280   -0.2270    1.0050 n         1 MOL     -0.501902
    115 C36        -6.6600    0.7640    1.0170 c3        1 MOL      0.718549
    116 C37        -6.1750    2.0630    0.3010 c         1 MOL      0.065433
    117 O19        -6.8440    2.5470   -0.6590 o         1 MOL     -0.482827
    118 C38        -7.8940    0.1970    0.2790 c3        1 MOL     -0.502707
    119 C39        -8.5470   -0.9870    1.0050 ca        1 MOL      0.329294
    120 C40        -8.2360   -2.2350    0.5490 ca        1 MOL     -0.307964
    121 C41        -9.5120   -0.7920    2.0370 ca        1 MOL     -0.307964
    122 C42        -8.7840   -3.3970    1.1920 ca        1 MOL     -0.026244
    123 C43       -10.0800   -1.9440    2.6200 ca        1 MOL     -0.026244
    124 C44        -9.7670   -3.1880    2.1230 ca        1 MOL     -0.210228
    125 H51        -5.0270   -0.3220    0.1390 hn        1 MOL      0.195067
    126 H52        -6.9580    1.0680    2.0170 h1        1 MOL     -0.052466
    127 H53        -7.7120   -0.1640   -0.7330 hc        1 MOL      0.117754
    128 H54        -8.5700    1.0460    0.3120 hc        1 MOL      0.117754
    129 H55        -7.6700   -2.3770   -0.3610 ha        1 MOL      0.144279
    130 H56        -9.8090    0.1620    2.4530 ha        1 MOL      0.144279
    131 H57        -8.4750   -4.4190    1.0110 ha        1 MOL      0.094677
    132 H58       -10.6930   -1.7910    3.4950 ha        1 MOL      0.094677
    133 H59       -10.2110   -4.1000    2.5230 ha        1 MOL      0.096504
    134 N12        -5.0990    2.8080    0.7410 n         1 MOL      0.049920
    135 C45        -4.5590    4.0180    0.0850 c3        1 MOL     -0.086515
    136 C46        -4.2810    3.8400   -1.4260 c         1 MOL      0.168154
    137 O20        -4.3590    4.8690   -2.1800 o         1 MOL     -0.530105
    138 C47        -3.2600    4.3380    0.9250 c3        1 MOL     -0.136985
    139 C48        -3.5450    3.8000    2.3290 c3        1 MOL      0.097322
    140 C49        -4.4370    2.5450    1.9980 c3        1 MOL     -0.203270
    141 H60        -5.3820    4.7200    0.2260 h1        1 MOL      0.094702
    142 H61        -2.4170    3.7920    0.4990 hc        1 MOL      0.094357
    143 H62        -2.9950    5.3930    1.0090 hc        1 MOL      0.094357
    144 H63        -2.5910    3.5690    2.8050 hc        1 MOL      0.006018
    145 H64        -4.1110    4.5720    2.8490 hc        1 MOL      0.006018
    146 H65        -3.8230    1.6550    1.7940 h1        1 MOL      0.110569
    147 H66        -5.2120    2.3200    2.7370 h1        1 MOL      0.110569
    148 N13        -3.9930    2.6820   -1.9060 n         1 MOL      0.238966
    149 C50        -3.5220    2.5060   -3.2880 c3        1 MOL     -0.175323
    150 C51        -4.7040    2.4880   -4.2540 c         1 MOL      0.416731
    151 O21        -4.6800    3.0270   -5.3870 o         1 MOL     -0.534861
    152 C52        -2.5190    1.3060   -3.3510 c3        1 MOL     -0.096913
    153 C53        -1.5370    1.1910   -2.1800 c3        1 MOL      0.059265
    154 C54        -2.0870    0.5520   -0.9010 c         1 MOL      0.441356
    155 O22        -1.4260    0.3930    0.1370 o         1 MOL     -0.618201
    156 O23        -3.3130    0.2850   -0.8350 o         1 MOL     -0.618201
    157 H67        -3.9270    1.8850   -1.2890 hn        1 MOL      0.180634
    158 H68        -3.0150    3.4330   -3.5650 h1        1 MOL      0.113131
    159 H69        -1.9430    1.4400   -4.2620 hc        1 MOL      0.029815
    160 H70        -3.0250    0.3350   -3.3730 hc        1 MOL      0.029815
    161 H71        -1.1180    2.1830   -1.9780 hc        1 MOL      0.004811
    162 H72        -0.7050    0.5610   -2.4990 hc        1 MOL      0.004811
    163 N14        -5.9030    2.0650   -3.7250 n         1 MOL     -0.153470
    164 C55        -7.2580    2.2290   -4.3530 c3        1 MOL     -0.211687
    165 H73        -8.0170    1.8180   -3.6870 h1        1 MOL      0.093710
    166 H74        -7.4550    3.2880   -4.5200 h1        1 MOL      0.093710
    167 H75        -7.2850    1.6990   -5.3050 h1        1 MOL      0.093710
    168 H76        -5.8070    1.7600   -2.7650 hn        1 MOL      0.139304
    169 Ca1         0.7370   -0.4520    1.1890 Ca        1 MOL      1.703613
    170 O24        -0.4300    1.9820    3.0350 oh        1 MOL     -0.894226
    171 H77        -1.2230    1.5070    2.8060 ho        1 MOL      0.424242
    172 H78         0.2190    1.2960    3.1950 ho        1 MOL      0.424242
    173 O25         1.2870    2.1330    0.7940 oh        1 MOL     -0.894226
    174 H79         2.1170    2.3590    0.3610 ho        1 MOL      0.424242
    175 H80         0.9650    2.9680    1.1310 ho        1 MOL      0.424242
    176 O26         1.8780    0.0550   -1.3470 oh        1 MOL     -0.894226
    177 H81         2.8260    0.1860   -1.3420 ho        1 MOL      0.424242
    178 H82         1.5990    0.3300   -2.2250 ho        1 MOL      0.424242
    179 O27         2.0220   -2.6160    2.1860 oh        1 MOL     -0.894226
    180 H83         2.7660   -2.9140    2.7000 ho        1 MOL      0.424242
    181 H84         1.2770   -3.1060    2.5170 ho        1 MOL      0.424242
@<TRIPOS>BOND
     1    1    2 1   
     2    1    4 1   
     3    1    5 1   
     4    1    6 1   
     5    2    3 2   
     6    2    7 1   
     7    7    8 1   
     8    7   15 1   
     9    8    9 1   
    10    8   11 1   
    11    8   16 1   
    12    9   10 2   
    13    9   19 1   
    14   11   12 1   
    15   11   17 1   
    16   11   18 1   
    17   12   13 1   
    18   12   14 1   
    19   19   20 1   
    20   19   24 1   
    21   20   21 1   
    22   20   23 1   
    23   20   25 1   
    24   21   22 2   
    25   21   29 1   
    26   23   26 1   
    27   23   27 1   
    28   23   28 1   
    29   29   30 1   
    30   29   37 1   
    31   30   31 1   
    32   30   33 1   
    33   30   38 1   
    34   31   32 2   
    35   31   41 1   
    36   33   34 1   
    37   33   39 1   
    38   33   40 1   
    39   34   35 1   
    40   34   36 1   
    41   41   42 1   
    42   41   45 1   
    43   42   43 1   
    44   42   46 1   
    45   42   47 1   
    46   43   44 2   
    47   43   48 1   
    48   48   49 1   
    49   48   56 1   
    50   49   50 1   
    51   49   52 1   
    52   49   57 1   
    53   50   51 2   
    54   50   62 1   
    55   52   53 1   
    56   52   58 1   
    57   52   59 1   
    58   53   54 1   
    59   53   55 2   
    60   54   60 1   
    61   54   61 1   
    62   62   63 1   
    63   62   66 1   
    64   63   64 1   
    65   63   67 1   
    66   63   68 1   
    67   64   65 2   
    68   64   69 1   
    69   69   70 1   
    70   69   76 1   
    71   70   71 1   
    72   70   73 1   
    73   70   77 1   
    74   71   72 2   
    75   71   83 1   
    76   73   74 1   
    77   73   75 1   
    78   73   78 1   
    79   74   80 1   
    80   74   81 1   
    81   74   82 1   
    82   75   79 1   
    83   83   84 1   
    84   83   91 1   
    85   84   85 1   
    86   84   87 1   
    87   84   92 1   
    88   85   86 2   
    89   85  102 1   
    90   87   88 1   
    91   87   89 1   
    92   87   93 1   
    93   88   90 1   
    94   88   94 1   
    95   88   95 1   
    96   89   96 1   
    97   89   97 1   
    98   89   98 1   
    99   90   99 1   
   100   90  100 1   
   101   90  101 1   
   102  102  103 1   
   103  102  110 1   
   104  103  104 1   
   105  103  106 1   
   106  103  111 1   
   107  104  105 2   
   108  104  114 1   
   109  106  107 1   
   110  106  112 1   
   111  106  113 1   
   112  107  108 1   
   113  107  109 1   
   114  114  115 1   
   115  114  125 1   
   116  115  116 1   
   117  115  118 1   
   118  115  126 1   
   119  116  117 2   
   120  116  134 1   
   121  118  119 1   
   122  118  127 1   
   123  118  128 1   
   124  119  120 ar  
   125  119  121 ar  
   126  120  122 ar  
   127  120  129 1   
   128  121  123 ar  
   129  121  130 1   
   130  122  124 ar  
   131  122  131 1   
   132  123  124 ar  
   133  123  132 1   
   134  124  133 1   
   135  134  135 1   
   136  134  140 1   
   137  135  136 1   
   138  135  138 1   
   139  135  141 1   
   140  136  137 2   
   141  136  148 1   
   142  138  139 1   
   143  138  142 1   
   144  138  143 1   
   145  139  140 1   
   146  139  144 1   
   147  139  145 1   
   148  140  146 1   
   149  140  147 1   
   150  148  149 1   
   151  148  157 1   
   152  149  150 1   
   153  149  152 1   
   154  149  158 1   
   155  150  151 2   
   156  150  163 1   
   157  152  153 1   
   158  152  159 1   
   159  152  160 1   
   160  153  154 1   
   161  153  161 1   
   162  153  162 1   
   163  154  155 1   
   164  154  156 1   
   165  163  164 1   
   166  163  168 1   
   167  164  165 1   
   168  164  166 1   
   169  164  167 1   
   170  170  171 1   
   171  170  172 1   
   172  173  174 1   
   173  173  175 1   
   174  176  177 1   
   175  176  178 1   
   176  179  180 1   
   177  179  181 1   
@<TRIPOS>SUBSTRUCTURE
     1 MOL         1 TEMP              0 ****  ****    0 ROOT
