@<TRIPOS>MOLECULE
MOL
  186   183     1     0     0
SMALL
resp


@<TRIPOS>ATOM
      1 C1         11.9110    5.8020   -2.8030 c3        1 MOL     -0.455909
      2 C2         11.6030    4.5440   -2.0130 c         1 MOL      0.800843
      3 O1         11.8260    3.3730   -2.4120 o         1 MOL     -0.639550
      4 H1         12.3000    5.5290   -3.7840 hc        1 MOL      0.118803
      5 H2         10.9990    6.3870   -2.9260 hc        1 MOL      0.118803
      6 H3         12.6540    6.3940   -2.2700 hc        1 MOL      0.118803
      7 N1         11.1220    4.6980   -0.7940 n         1 MOL     -0.547485
      8 C3         10.7880    3.6110    0.1190 c3        1 MOL     -0.299722
      9 C4          9.6650    2.7270   -0.3990 c         1 MOL      0.620942
     10 O2          8.6430    3.1740   -0.8890 o         1 MOL     -0.679120
     11 C5         10.5400    4.0750    1.5630 c3        1 MOL      0.000208
     12 C6          9.7720    5.4030    1.6580 c         1 MOL      0.737191
     13 O3          8.6240    5.4410    1.2340 o         1 MOL     -0.722076
     14 O4         10.3380    6.4060    2.2180 o         1 MOL     -0.722076
     15 H4         11.1650    5.6650   -0.4990 hn        1 MOL      0.311750
     16 H5         11.6660    2.9820    0.1780 h1        1 MOL      0.179861
     17 H6         11.5260    4.2120    2.0140 hc        1 MOL      0.046247
     18 H7          9.9560    3.2910    2.0440 hc        1 MOL      0.046247
     19 N2          9.8620    1.3960   -0.4000 n         1 MOL     -0.167433
     20 C7          9.0430    0.3040   -0.8900 c3        1 MOL     -0.001612
     21 C8          8.0630   -0.0720    0.1770 c         1 MOL      0.560202
     22 O5          8.4910   -0.5440    1.2530 o         1 MOL     -0.596177
     23 C9          9.9680   -0.8320   -1.2020 c3        1 MOL     -0.342394
     24 C10         9.3210   -2.0590   -1.9050 c3        1 MOL     -0.012950
     25 C11        10.3670   -3.0150   -2.5020 c3        1 MOL     -0.001845
     26 C12        11.0680   -3.9880   -1.5210 c3        1 MOL      0.019738
     27 N3         12.1220   -4.8340   -2.1010 n4        1 MOL     -0.170424
     28 H8         10.7340    1.0680    0.0010 hn        1 MOL      0.146690
     29 H9          8.4150    0.5580   -1.7470 h1        1 MOL      0.088234
     30 H10        10.4990   -1.0870   -0.2910 hc        1 MOL      0.132425
     31 H11        10.7310   -0.4400   -1.8780 hc        1 MOL      0.132425
     32 H12         8.5750   -1.7920   -2.6550 hc        1 MOL      0.059787
     33 H13         8.7210   -2.6430   -1.2100 hc        1 MOL      0.059787
     34 H14        11.1250   -2.4800   -3.0790 hc        1 MOL      0.013833
     35 H15         9.7910   -3.5720   -3.2460 hc        1 MOL      0.013833
     36 H16        10.2780   -4.6040   -1.0930 hx        1 MOL      0.082366
     37 H17        11.4630   -3.3900   -0.6970 hx        1 MOL      0.082366
     38 H18        12.2810   -5.7120   -1.6320 hn        1 MOL      0.221439
     39 H19        11.8460   -5.1340   -3.0240 hn        1 MOL      0.221439
     40 H20        12.9600   -4.2990   -2.2640 hn        1 MOL      0.221439
     41 N4          6.8180    0.0640   -0.1570 n         1 MOL     -0.349049
     42 C13         5.6930   -0.1480    0.7640 c3        1 MOL     -0.069528
     43 C14         4.3040   -0.4400    0.0680 c         1 MOL      0.444293
     44 O6          4.1220   -0.2830   -1.0940 o         1 MOL     -0.538936
     45 C15         5.5540    1.0390    1.7220 c3        1 MOL      0.375163
     46 C16         5.7860    2.4310    1.0190 c         1 MOL      0.562282
     47 O7          6.2630    3.3890    1.6910 o         1 MOL     -0.767435
     48 O8          5.5320    2.6050   -0.2050 o         1 MOL     -0.767435
     49 H21         6.5980    0.3350   -1.1050 hn        1 MOL      0.253950
     50 H22         5.9820   -1.0030    1.3680 h1        1 MOL      0.101226
     51 H23         6.2800    0.9060    2.5250 hc        1 MOL     -0.048724
     52 H24         4.6120    1.1000    2.2630 hc        1 MOL     -0.048724
     53 N5          3.3790   -1.0400    0.7470 n         1 MOL     -0.311371
     54 C17         3.4460   -1.5200    2.1310 c3        1 MOL     -0.278346
     55 C18         3.2050   -2.9650    2.1520 c         1 MOL      0.659330
     56 O9          3.5790   -3.7390    1.2530 o         1 MOL     -0.560189
     57 H25         2.4570   -1.0430    0.3300 hn        1 MOL      0.279482
     58 H26         2.6020   -1.0090    2.6130 h1        1 MOL      0.124129
     59 H27         4.3700   -1.1990    2.6180 h1        1 MOL      0.124129
     60 N6          2.6010   -3.4510    3.2630 n         1 MOL     -0.421413
     61 C19         2.4060   -4.8390    3.4680 c3        1 MOL      0.017159
     62 C20         1.2390   -5.3020    2.5590 c         1 MOL      0.439063
     63 O10         0.1840   -4.6110    2.5030 o         1 MOL     -0.505666
     64 C21         2.1080   -5.0080    4.9530 c3        1 MOL     -0.330614
     65 C22         1.7890   -6.5030    5.3050 c         1 MOL      0.722088
     66 O11         1.1630   -6.7730    6.3410 o         1 MOL     -0.652599
     67 O12         2.1810   -7.4570    4.5490 o         1 MOL     -0.652599
     68 H28         2.2000   -2.8520    3.9660 hn        1 MOL      0.258316
     69 H29         3.3400   -5.3420    3.2030 h1        1 MOL      0.062123
     70 H30         1.1600   -4.5550    5.2350 hc        1 MOL      0.110278
     71 H31         2.9300   -4.7000    5.5980 hc        1 MOL      0.110278
     72 N7          1.4270   -6.3590    1.8710 n         1 MOL     -0.149457
     73 C23         0.5900   -6.9240    0.8800 c3        1 MOL     -0.222487
     74 C24         0.3200   -6.0980   -0.4240 c         1 MOL      0.453106
     75 O13        -0.4590   -6.5000   -1.3250 o         1 MOL     -0.534215
     76 H32         2.3070   -6.8260    2.0240 hn        1 MOL      0.214991
     77 H33        -0.3830   -7.1000    1.3470 h1        1 MOL      0.126556
     78 H34         1.0300   -7.9170    0.7120 h1        1 MOL      0.126556
     79 N8          0.9500   -4.8610   -0.4370 n         1 MOL     -0.120259
     80 C25         0.6040   -3.7740   -1.3690 c3        1 MOL     -0.281424
     81 C26        -0.1400   -2.6560   -0.5470 c         1 MOL      0.516299
     82 O14         0.4410   -2.0570    0.3580 o         1 MOL     -0.501161
     83 C27         1.8090   -3.3450   -2.1930 c3        1 MOL      0.615200
     84 C28         2.6360   -4.4680   -2.7800 c3        1 MOL     -0.289012
     85 O15         1.3940   -2.7760   -3.3210 oh        1 MOL     -0.692678
     86 H35         1.5970   -4.5980    0.3050 hn        1 MOL      0.104136
     87 H36        -0.1270   -4.1440   -2.0860 h1        1 MOL      0.135674
     88 H37         2.4720   -2.6360   -1.7050 h1        1 MOL     -0.056067
     89 H38         2.1980   -2.4700   -3.7370 ho        1 MOL      0.397054
     90 H39         3.4060   -4.0390   -3.4210 hc        1 MOL      0.050185
     91 H40         3.1440   -4.8980   -1.9090 hc        1 MOL      0.050185
     92 H41         2.0070   -5.1890   -3.3030 hc        1 MOL      0.050185
     93 N9         -1.3440   -2.2820   -0.9290 n         1 MOL     -0.262311
     94 C29        -2.1220   -1.1640   -0.3660 c3        1 MOL     -0.267021
     95 C30        -3.5580   -1.5630   -0.0680 c         1 MOL      0.818860
     96 O16        -4.1350   -1.1840    0.9340 o         1 MOL     -0.581517
     97 C31        -2.0490    0.1070   -1.2380 c3        1 MOL      0.197008
     98 C32        -2.6370    1.3480   -0.4380 c3        1 MOL      0.072526
     99 C33        -2.6540   -0.0910   -2.6340 c3        1 MOL     -0.423691
    100 C34        -2.1910    2.6910   -1.0760 c3        1 MOL     -0.253298
    101 H42        -1.7310   -2.7140   -1.7580 hn        1 MOL      0.244110
    102 H43        -1.8500   -1.0470    0.6780 h1        1 MOL      0.125072
    103 H44        -0.9910    0.3100   -1.4070 hc        1 MOL      0.028744
    104 H45        -2.0850    1.3830    0.5020 hc        1 MOL      0.026490
    105 H46        -3.7170    1.3120   -0.3430 hc        1 MOL      0.026490
    106 H47        -3.7240    0.1270   -2.7010 hc        1 MOL      0.107438
    107 H48        -2.1950    0.6410   -3.3080 hc        1 MOL      0.107438
    108 H49        -2.3100   -1.0540   -2.9840 hc        1 MOL      0.107438
    109 H50        -2.2660    2.7050   -2.1650 hc        1 MOL      0.055980
    110 H51        -2.6170    3.5480   -0.5620 hc        1 MOL      0.055980
    111 H52        -1.1580    2.7670   -0.7470 hc        1 MOL      0.055980
    112 N10        -4.1450   -2.3450   -0.9560 n         1 MOL     -0.740010
    113 C35        -5.5570   -2.7850   -0.8370 c3        1 MOL      0.115516
    114 C36        -6.4320   -2.2600   -1.9830 c         1 MOL      0.652086
    115 O17        -6.0060   -2.3400   -3.1300 o         1 MOL     -0.558844
    116 C37        -5.6970   -4.3200   -0.6860 c3        1 MOL      0.256261
    117 C38        -4.9700   -4.8730    0.4920 c3        1 MOL     -0.234072
    118 O18        -7.0510   -4.6780   -0.5220 oh        1 MOL     -0.644837
    119 H53        -3.6840   -2.6140   -1.8160 hn        1 MOL      0.337120
    120 H54        -5.9320   -2.3280    0.0790 h1        1 MOL      0.115872
    121 H55        -5.2870   -4.7880   -1.5850 h1        1 MOL      0.008750
    122 H56        -7.0430   -5.6160   -0.7250 ho        1 MOL      0.408532
    123 H57        -5.0960   -5.9430    0.5740 hc        1 MOL      0.077313
    124 H58        -3.8920   -4.7190    0.5830 hc        1 MOL      0.077313
    125 H59        -5.4660   -4.3960    1.3360 hc        1 MOL      0.077313
    126 N11        -7.5990   -1.7040   -1.6720 n         1 MOL     -0.703887
    127 C39        -8.5550   -1.0560   -2.6770 c3        1 MOL      0.162544
    128 C40        -9.0900    0.3030   -2.3330 c         1 MOL      0.578646
    129 O19        -9.4070    1.0720   -3.2140 o         1 MOL     -0.565589
    130 C41        -9.8170   -2.0270   -2.7750 c3        1 MOL      0.336851
    131 C42       -10.8040   -1.6650   -3.8550 c3        1 MOL     -0.284045
    132 O20       -10.5260   -2.0930   -1.6210 oh        1 MOL     -0.594645
    133 H60        -7.9020   -1.7370   -0.7060 hn        1 MOL      0.326230
    134 H61        -8.1540   -0.9250   -3.6790 h1        1 MOL      0.086067
    135 H62        -9.3480   -3.0030   -2.9380 h1        1 MOL     -0.005429
    136 H63        -9.9300   -2.3390   -0.9080 ho        1 MOL      0.377682
    137 H64       -11.3320   -0.7830   -3.4950 hc        1 MOL      0.073312
    138 H65       -10.1950   -1.4400   -4.7290 hc        1 MOL      0.073312
    139 H66       -11.5660   -2.4110   -4.0640 hc        1 MOL      0.073312
    140 N12        -9.1940    0.6730   -1.0250 n         1 MOL     -0.446323
    141 C43        -9.6550    2.0240   -0.5390 c3        1 MOL      0.026996
    142 C44        -8.8290    2.4670    0.5920 c         1 MOL      0.453421
    143 O21        -8.4920    1.6200    1.4490 o         1 MOL     -0.516939
    144 C45       -11.0780    1.9310    0.0370 c3        1 MOL     -0.078370
    145 C46       -12.0660    1.6310   -1.0610 c3        1 MOL      0.055407
    146 C47       -13.5440    1.9510   -0.7660 c3        1 MOL     -0.079292
    147 C48       -14.0240    1.3370    0.5090 c3        1 MOL     -0.041426
    148 N13       -14.6040    0.0440    0.2320 n4        1 MOL     -0.184252
    149 H67        -9.1920   -0.0220   -0.2930 hn        1 MOL      0.250647
    150 H68        -9.5510    2.8460   -1.2510 h1        1 MOL      0.113796
    151 H69       -11.3420    2.8820    0.4890 hc        1 MOL      0.038593
    152 H70       -11.1520    1.1830    0.8350 hc        1 MOL      0.038593
    153 H71       -11.8610    0.6030   -1.3440 hc        1 MOL      0.008912
    154 H72       -11.8010    2.2850   -1.8920 hc        1 MOL      0.008912
    155 H73       -14.1020    1.6420   -1.6430 hc        1 MOL      0.059627
    156 H74       -13.6470    3.0330   -0.7040 hc        1 MOL      0.059627
    157 H75       -14.7490    2.0230    0.9430 hx        1 MOL      0.103252
    158 H76       -13.2150    1.1720    1.2120 hx        1 MOL      0.103252
    159 H77       -13.9320   -0.6580   -0.0330 hn        1 MOL      0.238397
    160 H78       -15.1460   -0.3850    0.9720 hn        1 MOL      0.238397
    161 H79       -15.2030    0.0620   -0.5800 hn        1 MOL      0.238397
    162 N14        -8.4040    3.7400    0.5830 n         1 MOL     -0.435921
    163 C49        -7.5450    4.3180    1.5920 c3        1 MOL      0.467062
    164 C50        -6.0560    3.9450    1.4470 c         1 MOL      0.308556
    165 O22        -5.4290    3.3640    2.2750 o         1 MOL     -0.521322
    166 C51        -7.8390    5.8200    1.6820 c3        1 MOL     -0.239165
    167 C52        -7.0270    6.5160    2.7900 c3        1 MOL     -0.078585
    168 C53        -7.7380    7.8550    3.1780 c         1 MOL      0.702214
    169 O23        -7.4850    8.3030    4.2930 o         1 MOL     -0.655838
    170 O24        -8.5200    8.4610    2.3710 o         1 MOL     -0.655838
    171 H80        -8.7950    4.3170   -0.1520 hn        1 MOL      0.232561
    172 H81        -7.8770    3.8920    2.5410 h1        1 MOL     -0.007575
    173 H82        -8.9020    5.8330    1.8970 hc        1 MOL      0.037702
    174 H83        -7.6970    6.3810    0.7550 hc        1 MOL      0.037702
    175 H84        -6.0240    6.6990    2.4030 hc        1 MOL      0.023226
    176 H85        -6.9720    5.8820    3.6770 hc        1 MOL      0.023226
    177 N15        -5.4180    4.2230    0.3010 n         1 MOL     -0.192769
    178 C54        -5.9480    4.7200   -0.9280 c3        1 MOL     -0.205299
    179 H86        -5.9500    3.9220   -1.6710 h1        1 MOL      0.082318
    180 H87        -6.9680    5.0700   -0.7690 h1        1 MOL      0.082318
    181 H88        -5.3310    5.5450   -1.2840 h1        1 MOL      0.082318
    182 H89        -4.4900    3.8430    0.4000 hn        1 MOL      0.223448
    183 Ca1         6.6730    4.9720   -0.5170 Ca        1 MOL      1.737313
    184 O25         7.0720    4.4320   -3.0970 oh        1 MOL     -0.906546
    185 H90         7.4510    4.8810   -3.8560 ho        1 MOL      0.456960
    186 H91         7.0290    3.5140   -3.3570 ho        1 MOL      0.456960
@<TRIPOS>BOND
     1    1    2 1   
     2    1    4 1   
     3    1    5 1   
     4    1    6 1   
     5    2    3 2   
     6    2    7 1   
     7    7    8 1   
     8    7   15 1   
     9    8    9 1   
    10    8   11 1   
    11    8   16 1   
    12    9   10 2   
    13    9   19 1   
    14   11   12 1   
    15   11   17 1   
    16   11   18 1   
    17   12   13 1   
    18   12   14 1   
    19   19   20 1   
    20   19   28 1   
    21   20   21 1   
    22   20   23 1   
    23   20   29 1   
    24   21   22 2   
    25   21   41 1   
    26   23   24 1   
    27   23   30 1   
    28   23   31 1   
    29   24   25 1   
    30   24   32 1   
    31   24   33 1   
    32   25   26 1   
    33   25   34 1   
    34   25   35 1   
    35   26   27 1   
    36   26   36 1   
    37   26   37 1   
    38   27   38 1   
    39   27   39 1   
    40   27   40 1   
    41   41   42 1   
    42   41   49 1   
    43   42   43 1   
    44   42   45 1   
    45   42   50 1   
    46   43   44 2   
    47   43   53 1   
    48   45   46 1   
    49   45   51 1   
    50   45   52 1   
    51   46   47 1   
    52   46   48 1   
    53   53   54 1   
    54   53   57 1   
    55   54   55 1   
    56   54   58 1   
    57   54   59 1   
    58   55   56 2   
    59   55   60 1   
    60   60   61 1   
    61   60   68 1   
    62   61   62 1   
    63   61   64 1   
    64   61   69 1   
    65   62   63 2   
    66   62   72 1   
    67   64   65 1   
    68   64   70 1   
    69   64   71 1   
    70   65   66 1   
    71   65   67 1   
    72   72   73 1   
    73   72   76 1   
    74   73   74 1   
    75   73   77 1   
    76   73   78 1   
    77   74   75 2   
    78   74   79 1   
    79   79   80 1   
    80   79   86 1   
    81   80   81 1   
    82   80   83 1   
    83   80   87 1   
    84   81   82 2   
    85   81   93 1   
    86   83   84 1   
    87   83   85 1   
    88   83   88 1   
    89   84   90 1   
    90   84   91 1   
    91   84   92 1   
    92   85   89 1   
    93   93   94 1   
    94   93  101 1   
    95   94   95 1   
    96   94   97 1   
    97   94  102 1   
    98   95   96 2   
    99   95  112 1   
   100   97   98 1   
   101   97   99 1   
   102   97  103 1   
   103   98  100 1   
   104   98  104 1   
   105   98  105 1   
   106   99  106 1   
   107   99  107 1   
   108   99  108 1   
   109  100  109 1   
   110  100  110 1   
   111  100  111 1   
   112  112  113 1   
   113  112  119 1   
   114  113  114 1   
   115  113  116 1   
   116  113  120 1   
   117  114  115 2   
   118  114  126 1   
   119  116  117 1   
   120  116  118 1   
   121  116  121 1   
   122  117  123 1   
   123  117  124 1   
   124  117  125 1   
   125  118  122 1   
   126  126  127 1   
   127  126  133 1   
   128  127  128 1   
   129  127  130 1   
   130  127  134 1   
   131  128  129 2   
   132  128  140 1   
   133  130  131 1   
   134  130  132 1   
   135  130  135 1   
   136  131  137 1   
   137  131  138 1   
   138  131  139 1   
   139  132  136 1   
   140  140  141 1   
   141  140  149 1   
   142  141  142 1   
   143  141  144 1   
   144  141  150 1   
   145  142  143 2   
   146  142  162 1   
   147  144  145 1   
   148  144  151 1   
   149  144  152 1   
   150  145  146 1   
   151  145  153 1   
   152  145  154 1   
   153  146  147 1   
   154  146  155 1   
   155  146  156 1   
   156  147  148 1   
   157  147  157 1   
   158  147  158 1   
   159  148  159 1   
   160  148  160 1   
   161  148  161 1   
   162  162  163 1   
   163  162  171 1   
   164  163  164 1   
   165  163  166 1   
   166  163  172 1   
   167  164  165 2   
   168  164  177 1   
   169  166  167 1   
   170  166  173 1   
   171  166  174 1   
   172  167  168 1   
   173  167  175 1   
   174  167  176 1   
   175  168  169 1   
   176  168  170 1   
   177  177  178 1   
   178  177  182 1   
   179  178  179 1   
   180  178  180 1   
   181  178  181 1   
   182  184  185 1   
   183  184  186 1   
@<TRIPOS>SUBSTRUCTURE
     1 MOL         1 TEMP              0 ****  ****    0 ROOT
