@<TRIPOS>MOLECULE
MOL
  195   189     1     0     0
SMALL
resp


@<TRIPOS>ATOM
      1 C1          3.3530   -4.4240    1.3730 c3        1 MOL     -0.302489
      2 C2          4.5800   -4.0340    0.4370 c         1 MOL      0.897299
      3 O1          4.9630   -2.8470    0.4950 o         1 MOL     -0.608905
      4 H1          3.7230   -4.6850    2.3650 hc        1 MOL      0.019920
      5 H2          2.6710   -3.5770    1.4520 hc        1 MOL      0.019920
      6 H3          2.8270   -5.2770    0.9460 hc        1 MOL      0.019920
      7 N1          5.1080   -4.9230   -0.3610 n         1 MOL     -0.560277
      8 C3          6.3230   -4.6940   -1.2290 c3        1 MOL     -0.099437
      9 C4          7.7290   -4.2830   -0.5720 c         1 MOL      0.574254
     10 O2          8.8010   -4.4740   -1.1480 o         1 MOL     -0.526172
     11 C5          5.9940   -3.8040   -2.4950 c3        1 MOL     -0.152491
     12 C6          4.8520   -4.3460   -3.3500 c         1 MOL      0.596039
     13 O3          5.0410   -5.3650   -4.0430 o         1 MOL     -0.683186
     14 O4          3.7270   -3.7800   -3.2220 o         1 MOL     -0.683186
     15 H4          4.7500   -5.8680   -0.3610 hn        1 MOL      0.356557
     16 H5          6.6340   -5.6730   -1.5700 h1        1 MOL      0.069775
     17 H6          6.8650   -3.8090   -3.1440 hc        1 MOL      0.063362
     18 H7          5.7950   -2.7750   -2.1900 hc        1 MOL      0.063362
     19 N2          7.6540   -3.7430    0.6200 n         1 MOL     -0.465497
     20 C7          8.6560   -3.2370    1.5210 c3        1 MOL      0.155003
     21 C8          9.7090   -2.3960    0.7260 c         1 MOL      0.463349
     22 O5         10.8880   -2.7760    0.7070 o         1 MOL     -0.579979
     23 C9          9.3110   -4.3390    2.4110 c3        1 MOL      0.201309
     24 C10         8.3400   -5.3690    2.9510 c3        1 MOL      0.038249
     25 C11        10.0690   -3.6280    3.5240 c3        1 MOL     -0.235981
     26 C12         9.0850   -6.3820    3.9110 c3        1 MOL     -0.122376
     27 H8          6.7020   -3.5690    0.9370 hn        1 MOL      0.123249
     28 H9          8.0640   -2.5930    2.1800 h1        1 MOL      0.060420
     29 H10         9.9820   -4.9200    1.7680 hc        1 MOL      0.019569
     30 H11         7.9820   -5.9110    2.0720 hc        1 MOL     -0.016934
     31 H12         7.5490   -4.9660    3.5870 hc        1 MOL     -0.016934
     32 H13         9.3310   -3.2550    4.2310 hc        1 MOL      0.035199
     33 H14        10.7690   -4.2940    4.0330 hc        1 MOL      0.035199
     34 H15        10.5480   -2.7190    3.1540 hc        1 MOL      0.035199
     35 H16         9.3630   -5.8440    4.8250 hc        1 MOL      0.012712
     36 H17         8.4060   -7.2090    4.1110 hc        1 MOL      0.012712
     37 H18         9.9530   -6.7730    3.3720 hc        1 MOL      0.012712
     38 N3          9.3080   -1.3390    0.0010 n         1 MOL     -0.325596
     39 C13         8.0320   -0.6470    0.0370 c3        1 MOL     -0.140324
     40 C14         7.4130   -0.3640   -1.3500 c         1 MOL      0.606583
     41 O6          8.1160   -0.3290   -2.3410 o         1 MOL     -0.570202
     42 C15         8.2750    0.7230    0.7610 c3        1 MOL     -0.263809
     43 C16         6.9320    1.3680    1.1820 c         1 MOL      0.761165
     44 O7          6.8170    2.5800    1.2870 o         1 MOL     -0.691025
     45 O8          5.8960    0.6970    1.3510 o         1 MOL     -0.691025
     46 H19         9.9830   -0.9010   -0.6130 hn        1 MOL      0.283189
     47 H20         7.3680   -1.2920    0.6050 h1        1 MOL      0.133310
     48 H21         8.9140    1.4210    0.2260 hc        1 MOL      0.058978
     49 H22         8.8230    0.4850    1.6790 hc        1 MOL      0.058978
     50 N4          6.0850   -0.2790   -1.4090 n         1 MOL     -0.153638
     51 C17         5.3580    0.2350   -2.5490 c3        1 MOL     -0.274213
     52 C18         5.2480    1.7930   -2.5540 c         1 MOL      0.594804
     53 O9          6.2000    2.5160   -2.3450 o         1 MOL     -0.531365
     54 H23         5.5890   -0.4320   -0.5420 hn        1 MOL      0.244031
     55 H24         4.3910   -0.2800   -2.5920 h1        1 MOL      0.119158
     56 H25         5.8270   -0.0190   -3.5020 h1        1 MOL      0.119158
     57 N5          4.0680    2.2920   -2.9880 n         1 MOL     -0.391544
     58 C19         3.8240    3.6880   -3.4110 c3        1 MOL      0.053272
     59 C20         4.0920    4.7730   -2.3430 c         1 MOL      0.402143
     60 O10         4.3090    5.9150   -2.6440 o         1 MOL     -0.564278
     61 C21         2.4270    3.7420   -3.9460 c3        1 MOL     -0.222631
     62 C22         1.3950    3.1430   -2.9740 c         1 MOL      0.564585
     63 O11         1.0840    1.9440   -3.1390 o         1 MOL     -0.637086
     64 O12         1.0470    3.8090   -1.9730 o         1 MOL     -0.637086
     65 H26         3.3090    1.6590   -3.2140 hn        1 MOL      0.232654
     66 H27         4.5070    3.9290   -4.2220 h1        1 MOL      0.062481
     67 H28         2.4560    3.2260   -4.9070 hc        1 MOL      0.047588
     68 H29         2.1930    4.7890   -4.1190 hc        1 MOL      0.047588
     69 N6          4.0690    4.4050   -1.0770 n         1 MOL     -0.026059
     70 C23         4.1750    5.2950    0.1250 c3        1 MOL     -0.350520
     71 C24         2.9400    6.0650    0.5170 c         1 MOL      0.642604
     72 O13         2.9340    6.8380    1.4910 o         1 MOL     -0.604653
     73 H30         3.8690    3.4270   -0.9180 hn        1 MOL      0.186298
     74 H31         4.9050    6.0420   -0.2030 h1        1 MOL      0.155194
     75 H32         4.5810    4.7070    0.9480 h1        1 MOL      0.155194
     76 N7          1.7840    5.7680   -0.1180 n         1 MOL     -0.410568
     77 C25         0.4810    6.3420    0.1270 c3        1 MOL      0.178862
     78 C26        -0.1390    6.3120    1.5170 c         1 MOL      0.328069
     79 O14        -1.0230    7.0590    1.9200 o         1 MOL     -0.513004
     80 C27         0.4340    7.8290   -0.4330 c3        1 MOL     -0.001082
     81 C28         0.7160    7.8020   -1.9680 c3        1 MOL     -0.103170
     82 C29         0.2000    8.9690   -2.7230 c         1 MOL      0.576881
     83 N8          0.7460    9.2370   -3.8690 n         1 MOL     -0.751088
     84 O15        -0.7510    9.6360   -2.2820 o         1 MOL     -0.575577
     85 H33         1.8860    5.2790   -0.9960 hn        1 MOL      0.201948
     86 H34        -0.1910    5.6850   -0.4160 h1        1 MOL      0.062596
     87 H35         1.1930    8.3910    0.1200 hc        1 MOL      0.021063
     88 H36        -0.5280    8.2690   -0.1860 hc        1 MOL      0.021063
     89 H37         0.2260    6.9460   -2.4320 hc        1 MOL      0.054312
     90 H38         1.7780    7.6650   -2.1570 hc        1 MOL      0.054312
     91 H39         1.5080    8.6650   -4.2150 hn        1 MOL      0.345115
     92 H40         0.3800   10.0490   -4.3290 hn        1 MOL      0.345115
     93 N9          0.4010    5.4480    2.4110 n         1 MOL     -0.079158
     94 C30        -0.0640    5.1470    3.7660 c3        1 MOL     -0.126327
     95 C31        -1.0460    3.9670    3.7190 c         1 MOL      0.549641
     96 O16        -1.7670    3.7380    4.7020 o         1 MOL     -0.592426
     97 C32         1.0610    5.0090    4.7790 c3        1 MOL      0.318690
     98 C33         2.0040    3.8240    4.4880 c3        1 MOL     -0.360283
     99 C34         1.8650    6.3230    4.8410 c3        1 MOL     -0.360283
    100 H41         1.1640    4.8860    2.0440 hn        1 MOL      0.153949
    101 H42        -0.6780    6.0010    4.0740 h1        1 MOL      0.095453
    102 H43         0.4950    4.9290    5.7150 hc        1 MOL     -0.042223
    103 H44         2.6180    3.7250    5.3880 hc        1 MOL      0.085314
    104 H45         1.4950    2.8740    4.3160 hc        1 MOL      0.085314
    105 H46         2.7210    4.0280    3.6880 hc        1 MOL      0.085314
    106 H47         1.2550    7.1800    5.1360 hc        1 MOL      0.085314
    107 H48         2.5320    6.1750    5.7030 hc        1 MOL      0.085314
    108 H49         2.4090    6.4480    3.9150 hc        1 MOL      0.085314
    109 N10        -1.1710    3.1440    2.6230 n         1 MOL     -0.446307
    110 C35        -2.0310    1.9550    2.6060 c3        1 MOL      0.385017
    111 C36        -2.9770    1.9630    1.4050 c         1 MOL      0.305976
    112 O17        -2.6580    2.6520    0.3390 o         1 MOL     -0.476552
    113 C37        -1.1500    0.6560    2.6430 c3        1 MOL     -0.385034
    114 C38        -1.7190   -0.4690    3.4460 c         1 MOL      0.522949
    115 N11        -1.0590   -0.8240    4.5210 n         1 MOL     -0.640470
    116 O18        -2.7470   -0.9880    3.1790 o         1 MOL     -0.498734
    117 H50        -0.5750    3.3770    1.8420 hn        1 MOL      0.196010
    118 H51        -2.7330    1.9680    3.4410 h1        1 MOL      0.054299
    119 H52        -0.1690    0.9220    3.0550 hc        1 MOL      0.161310
    120 H53        -0.8250    0.3610    1.6420 hc        1 MOL      0.161310
    121 H54        -0.1310   -0.4620    4.6790 hn        1 MOL      0.308155
    122 H55        -1.3330   -1.6660    4.9940 hn        1 MOL      0.308155
    123 N12        -4.0860    1.2570    1.4210 n         1 MOL     -0.338374
    124 C39        -4.8590    0.8270    0.2550 c3        1 MOL     -0.228048
    125 C40        -6.2590    0.3900    0.6550 c         1 MOL      0.785981
    126 O19        -6.4070   -0.4500    1.5560 o         1 MOL     -0.648850
    127 C41        -4.0300   -0.1920   -0.6000 c3        1 MOL     -0.294292
    128 C42        -4.6750   -0.6480   -1.8890 ca        1 MOL      0.085664
    129 C43        -4.7650    0.1770   -3.0680 ca        1 MOL     -0.115534
    130 C44        -5.2660   -1.9090   -1.9240 ca        1 MOL     -0.115534
    131 C45        -5.4650   -0.2970   -4.2120 ca        1 MOL     -0.344802
    132 C46        -5.9270   -2.3730   -3.0540 ca        1 MOL     -0.344802
    133 C47        -6.1120   -1.5620   -4.2060 ca        1 MOL      0.424944
    134 O20        -6.8050   -1.9530   -5.3230 oh        1 MOL     -0.575255
    135 H56        -4.3550    0.7880    2.2750 hn        1 MOL      0.274239
    136 H57        -4.9860    1.7150   -0.3550 h1        1 MOL      0.160119
    137 H58        -3.8350   -1.0590    0.0280 hc        1 MOL      0.188044
    138 H59        -3.0370    0.1890   -0.8580 hc        1 MOL      0.188044
    139 H60        -4.2850    1.1470   -3.0310 ha        1 MOL      0.151122
    140 H61        -5.2890   -2.5510   -1.0550 ha        1 MOL      0.151122
    141 H62        -5.5560    0.2920   -5.1220 ha        1 MOL      0.149026
    142 H63        -6.4570   -3.3240   -3.0420 ha        1 MOL      0.149026
    143 H64        -6.9240   -1.2920   -5.9990 ho        1 MOL      0.418111
    144 N13        -7.3270    0.6950   -0.0620 n         1 MOL     -0.656821
    145 C48        -8.6350   -0.1150    0.0040 c3        1 MOL      0.171791
    146 C49        -8.6760   -1.3160   -0.9830 c         1 MOL      0.730594
    147 O21        -9.0080   -1.1050   -2.1240 o         1 MOL     -0.554440
    148 C50        -9.7260    0.9340   -0.1070 c3        1 MOL      0.069799
    149 C51       -11.1330    0.4440    0.4170 c3        1 MOL     -0.226365
    150 C52       -12.2970    1.3600    0.0510 c         1 MOL      0.717559
    151 O22       -13.3200    1.3130    0.7910 o         1 MOL     -0.710630
    152 O23       -12.1910    2.2310   -0.8650 o         1 MOL     -0.710630
    153 H65        -7.2950    1.1970   -0.9340 hn        1 MOL      0.317784
    154 H66        -8.7540   -0.5550    0.9960 h1        1 MOL      0.080206
    155 H67        -9.8260    1.2820   -1.1370 hc        1 MOL     -0.003690
    156 H68        -9.4120    1.7500    0.5420 hc        1 MOL     -0.003690
    157 H69       -11.0630    0.2570    1.4930 hc        1 MOL      0.028409
    158 H70       -11.3400   -0.5010   -0.0710 hc        1 MOL      0.028409
    159 N14        -8.2520   -2.5650   -0.6910 n         1 MOL     -0.757354
    160 C53        -7.5460   -3.1890    0.3810 c3        1 MOL      0.485121
    161 C54        -8.3740   -3.1670    1.6920 c         1 MOL      0.198159
    162 O24        -9.6120   -3.3280    1.6410 o         1 MOL     -0.508063
    163 C55        -7.1990   -4.6250    0.0330 c3        1 MOL     -0.337527
    164 C56        -6.1810   -5.3140    0.8460 c3        1 MOL      0.445184
    165 C57        -4.7450   -5.1210    0.3990 c         1 MOL      0.496687
    166 O25        -4.2860   -6.0220   -0.3180 o         1 MOL     -0.745388
    167 O26        -4.0070   -4.2220    0.8550 o         1 MOL     -0.745388
    168 H71        -8.3560   -3.1020   -1.5330 hn        1 MOL      0.307498
    169 H72        -6.5910   -2.6890    0.5000 h1        1 MOL     -0.040242
    170 H73        -6.9530   -4.6920   -1.0300 hc        1 MOL      0.088004
    171 H74        -8.0970   -5.2350    0.1530 hc        1 MOL      0.088004
    172 H75        -6.3150   -6.3900    0.7030 hc        1 MOL     -0.124275
    173 H76        -6.2970   -5.1310    1.9060 hc        1 MOL     -0.124275
    174 N15        -7.7490   -2.9260    2.8160 n         1 MOL     -0.069980
    175 C58        -8.3470   -2.7700    4.1610 c3        1 MOL     -0.236974
    176 H77        -7.7090   -3.2540    4.9010 h1        1 MOL      0.102269
    177 H78        -8.4380   -1.7100    4.3990 h1        1 MOL      0.102269
    178 H79        -9.3340   -3.2320    4.1760 h1        1 MOL      0.102269
    179 H80        -6.7650   -2.7380    2.6680 hn        1 MOL      0.221194
    180 Ca1        -1.6190   -5.0080   -0.1810 Ca        1 MOL      1.695890
    181 O27        -0.3210   -4.9830   -2.4800 oh        1 MOL     -0.883643
    182 H81         0.0260   -4.4140   -3.1750 ho        1 MOL      0.423170
    183 H82        -0.5270   -5.8060   -2.9280 ho        1 MOL      0.423170
    184 O28        -1.5840   -3.7420    2.5880 oh        1 MOL     -0.883643
    185 H83        -0.9090   -3.8460    3.2560 ho        1 MOL      0.423170
    186 H84        -2.1540   -3.0550    2.9140 ho        1 MOL      0.423170
    187 O29        -1.5290   -7.3730   -1.4930 oh        1 MOL     -0.883643
    188 H85        -0.9970   -7.7760   -2.1900 ho        1 MOL      0.423170
    189 H86        -2.3200   -7.9100   -1.4590 ho        1 MOL      0.423170
    190 O30        -3.1170   -4.3240   -2.2500 oh        1 MOL     -0.883643
    191 H87        -2.6700   -3.9190   -2.9980 ho        1 MOL      0.423170
    192 H88        -3.9760   -4.5820   -2.5980 ho        1 MOL      0.423170
    193 O31        -0.9810   -2.4140   -0.7320 oh        1 MOL     -0.883643
    194 H89        -1.4420   -2.1650   -1.5440 ho        1 MOL      0.423170
    195 H90        -0.3990   -1.6810   -0.5590 ho        1 MOL      0.423170
@<TRIPOS>BOND
     1    1    2 1   
     2    1    4 1   
     3    1    5 1   
     4    1    6 1   
     5    2    3 2   
     6    2    7 1   
     7    7    8 1   
     8    7   15 1   
     9    8    9 1   
    10    8   11 1   
    11    8   16 1   
    12    9   10 2   
    13    9   19 1   
    14   11   12 1   
    15   11   17 1   
    16   11   18 1   
    17   12   13 1   
    18   12   14 1   
    19   19   20 1   
    20   19   27 1   
    21   20   21 1   
    22   20   23 1   
    23   20   28 1   
    24   21   22 2   
    25   21   38 1   
    26   23   24 1   
    27   23   25 1   
    28   23   29 1   
    29   24   26 1   
    30   24   30 1   
    31   24   31 1   
    32   25   32 1   
    33   25   33 1   
    34   25   34 1   
    35   26   35 1   
    36   26   36 1   
    37   26   37 1   
    38   38   39 1   
    39   38   46 1   
    40   39   40 1   
    41   39   42 1   
    42   39   47 1   
    43   40   41 2   
    44   40   50 1   
    45   42   43 1   
    46   42   48 1   
    47   42   49 1   
    48   43   44 1   
    49   43   45 1   
    50   50   51 1   
    51   50   54 1   
    52   51   52 1   
    53   51   55 1   
    54   51   56 1   
    55   52   53 2   
    56   52   57 1   
    57   57   58 1   
    58   57   65 1   
    59   58   59 1   
    60   58   61 1   
    61   58   66 1   
    62   59   60 2   
    63   59   69 1   
    64   61   62 1   
    65   61   67 1   
    66   61   68 1   
    67   62   63 1   
    68   62   64 1   
    69   69   70 1   
    70   69   73 1   
    71   70   71 1   
    72   70   74 1   
    73   70   75 1   
    74   71   72 2   
    75   71   76 1   
    76   76   77 1   
    77   76   85 1   
    78   77   78 1   
    79   77   80 1   
    80   77   86 1   
    81   78   79 2   
    82   78   93 1   
    83   80   81 1   
    84   80   87 1   
    85   80   88 1   
    86   81   82 1   
    87   81   89 1   
    88   81   90 1   
    89   82   83 1   
    90   82   84 2   
    91   83   91 1   
    92   83   92 1   
    93   93   94 1   
    94   93  100 1   
    95   94   95 1   
    96   94   97 1   
    97   94  101 1   
    98   95   96 2   
    99   95  109 1   
   100   97   98 1   
   101   97   99 1   
   102   97  102 1   
   103   98  103 1   
   104   98  104 1   
   105   98  105 1   
   106   99  106 1   
   107   99  107 1   
   108   99  108 1   
   109  109  110 1   
   110  109  117 1   
   111  110  111 1   
   112  110  113 1   
   113  110  118 1   
   114  111  112 2   
   115  111  123 1   
   116  113  114 1   
   117  113  119 1   
   118  113  120 1   
   119  114  115 1   
   120  114  116 2   
   121  115  121 1   
   122  115  122 1   
   123  123  124 1   
   124  123  135 1   
   125  124  125 1   
   126  124  127 1   
   127  124  136 1   
   128  125  126 2   
   129  125  144 1   
   130  127  128 1   
   131  127  137 1   
   132  127  138 1   
   133  128  129 ar  
   134  128  130 ar  
   135  129  131 ar  
   136  129  139 1   
   137  130  132 ar  
   138  130  140 1   
   139  131  133 ar  
   140  131  141 1   
   141  132  133 ar  
   142  132  142 1   
   143  133  134 1   
   144  134  143 1   
   145  144  145 1   
   146  144  153 1   
   147  145  146 1   
   148  145  148 1   
   149  145  154 1   
   150  146  147 2   
   151  146  159 1   
   152  148  149 1   
   153  148  155 1   
   154  148  156 1   
   155  149  150 1   
   156  149  157 1   
   157  149  158 1   
   158  150  151 1   
   159  150  152 1   
   160  159  160 1   
   161  159  168 1   
   162  160  161 1   
   163  160  163 1   
   164  160  169 1   
   165  161  162 2   
   166  161  174 1   
   167  163  164 1   
   168  163  170 1   
   169  163  171 1   
   170  164  165 1   
   171  164  172 1   
   172  164  173 1   
   173  165  166 1   
   174  165  167 1   
   175  174  175 1   
   176  174  179 1   
   177  175  176 1   
   178  175  177 1   
   179  175  178 1   
   180  181  182 1   
   181  181  183 1   
   182  184  185 1   
   183  184  186 1   
   184  187  188 1   
   185  187  189 1   
   186  190  191 1   
   187  190  192 1   
   188  193  194 1   
   189  193  195 1   
@<TRIPOS>SUBSTRUCTURE
     1 MOL         1 TEMP              0 ****  ****    0 ROOT
