@<TRIPOS>MOLECULE
MOL
  189   185     1     0     0
SMALL
resp


@<TRIPOS>ATOM
      1 C1          8.7720    0.8280    2.5450 c3        1 MOL     -0.566896
      2 C2          7.8650    0.7340    1.3630 c         1 MOL      0.780131
      3 O1          6.6630    1.1280    1.4520 o         1 MOL     -0.732182
      4 H1          8.5510    0.0140    3.2370 hc        1 MOL      0.143574
      5 H2          9.8080    0.7530    2.2160 hc        1 MOL      0.143574
      6 H3          8.6170    1.7830    3.0470 hc        1 MOL      0.143574
      7 N1          8.2580    0.2680    0.1850 n         1 MOL     -0.358163
      8 C3          7.5640    0.3190   -1.1240 c3        1 MOL     -0.313247
      9 C4          6.9450   -1.0130   -1.4950 c         1 MOL      0.721028
     10 O2          6.7070   -1.3010   -2.6760 o         1 MOL     -0.503476
     11 C5          8.5730    0.8430   -2.2030 c3        1 MOL     -0.226604
     12 C6          9.7470   -0.1300   -2.4080 c         1 MOL      0.722675
     13 O3         10.4790    0.2000   -3.3760 o         1 MOL     -0.647178
     14 O4         10.0770   -0.9910   -1.6020 o         1 MOL     -0.647178
     15 H4          9.1800   -0.1530    0.2060 hn        1 MOL      0.221971
     16 H5          6.7830    1.0580   -0.9340 h1        1 MOL      0.213701
     17 H6          8.9050    1.8200   -1.8660 hc        1 MOL      0.110407
     18 H7          8.0290    1.1160   -3.1060 hc        1 MOL      0.110407
     19 N2          6.7720   -1.8040   -0.4540 n         1 MOL     -0.660097
     20 C7          6.2040   -3.1580   -0.4760 c3        1 MOL      0.411583
     21 C8          4.7370   -3.3570   -0.9020 c         1 MOL      0.442471
     22 O5          4.4510   -4.1080   -1.7580 o         1 MOL     -0.532133
     23 C9          6.5410   -3.9170    0.8410 c3        1 MOL     -0.166988
     24 C10         8.0600   -4.1060    1.1110 c3        1 MOL      0.089870
     25 C11         8.3310   -4.9350    2.4060 c3        1 MOL     -0.220815
     26 C12         9.7970   -4.9310    2.8560 c3        1 MOL      0.124517
     27 N3          9.9170   -5.4600    4.2590 n4        1 MOL     -0.275789
     28 H8          7.0000   -1.4750    0.4790 hn        1 MOL      0.263308
     29 H9          6.6850   -3.7260   -1.2710 h1        1 MOL     -0.003989
     30 H10         6.1000   -4.9030    0.7220 hc        1 MOL      0.039924
     31 H11         6.0240   -3.3610    1.6210 hc        1 MOL      0.039924
     32 H12         8.5930   -3.1920    1.3820 hc        1 MOL      0.031312
     33 H13         8.5060   -4.6250    0.2740 hc        1 MOL      0.031312
     34 H14         8.0510   -5.9620    2.1430 hc        1 MOL      0.077173
     35 H15         7.7570   -4.6280    3.2860 hc        1 MOL      0.077173
     36 H16        10.1130   -3.9020    3.0300 hx        1 MOL      0.062182
     37 H17        10.4770   -5.3690    2.1260 hx        1 MOL      0.062182
     38 H18        10.9040   -5.5080    4.4910 hn        1 MOL      0.270958
     39 H19         9.5470   -4.8330    4.9620 hn        1 MOL      0.270958
     40 H20         9.4980   -6.3600    4.4010 hn        1 MOL      0.270958
     41 N4          3.7280   -2.6130   -0.3940 n         1 MOL     -0.531640
     42 C13         3.6620   -1.6060    0.7120 c3        1 MOL      0.011083
     43 C14         3.4750   -0.1250    0.2150 c         1 MOL      0.488711
     44 O6          3.2590    0.1030   -0.9800 o         1 MOL     -0.605527
     45 C15         2.5840   -2.0020    1.6850 c3        1 MOL     -0.196301
     46 C16         1.2280   -2.2650    1.0110 c         1 MOL      0.674742
     47 O7          0.7860   -1.4230    0.2670 o         1 MOL     -0.680199
     48 O8          0.5070   -3.2200    1.4000 o         1 MOL     -0.680199
     49 H21         2.9610   -2.6980   -1.0390 hn        1 MOL      0.473618
     50 H22         4.5920   -1.6180    1.2700 h1        1 MOL      0.073205
     51 H23         2.4270   -1.1600    2.3510 hc        1 MOL      0.046997
     52 H24         3.0030   -2.8120    2.2910 hc        1 MOL      0.046997
     53 N5          3.6930    0.8780    1.0580 n         1 MOL     -0.093684
     54 C17         3.8810    2.2620    0.5900 c3        1 MOL     -0.003154
     55 C18         2.7200    2.7930   -0.1930 c         1 MOL      0.236844
     56 O9          1.6400    2.1470   -0.2540 o         1 MOL     -0.493202
     57 H25         4.1450    0.6060    1.9250 hn        1 MOL      0.184642
     58 H26         4.7430    2.3920   -0.0700 h1        1 MOL      0.108048
     59 H27         4.1990    2.9270    1.3950 h1        1 MOL      0.108048
     60 N6          2.7690    3.9720   -0.7720 n         1 MOL     -0.340220
     61 C19         1.5500    4.5570   -1.2660 c3        1 MOL      0.336705
     62 C20         1.5150    6.0970   -1.0270 c         1 MOL      0.407570
     63 O10         2.5880    6.6830   -0.7640 o         1 MOL     -0.535745
     64 C21         1.4280    4.2610   -2.7310 c3        1 MOL     -0.120467
     65 C22         2.1230    2.9920   -3.2150 c         1 MOL      0.787567
     66 O11         3.1630    3.1500   -3.8980 o         1 MOL     -0.690200
     67 O12         1.5840    1.8830   -3.2250 o         1 MOL     -0.690200
     68 H28         3.5920    4.5510   -0.7740 hn        1 MOL      0.274748
     69 H29         0.6780    4.0800   -0.8180 h1        1 MOL     -0.040202
     70 H30         1.8990    5.0820   -3.2620 hc        1 MOL      0.015674
     71 H31         0.4240    4.0920   -3.1230 hc        1 MOL      0.015674
     72 N7          0.4160    6.7960   -1.1960 n         1 MOL     -0.455879
     73 C23        -0.9050    6.2740   -1.4360 c3        1 MOL     -0.032726
     74 C24        -1.5660    5.7980   -0.1290 c         1 MOL      0.650947
     75 O13        -0.9830    5.9120    0.9680 o         1 MOL     -0.521004
     76 H32         0.4890    7.8010   -1.1460 hn        1 MOL      0.341955
     77 H33        -0.8820    5.5060   -2.2050 h1        1 MOL      0.058528
     78 H34        -1.5120    7.1190   -1.7770 h1        1 MOL      0.058528
     79 N8         -2.8040    5.2760   -0.2090 n         1 MOL     -0.536936
     80 C25        -3.6400    5.0050    0.9850 c3        1 MOL      0.040365
     81 C26        -3.2510    3.8290    1.8180 c         1 MOL      0.451443
     82 O14        -4.0920    3.1470    2.3920 o         1 MOL     -0.483505
     83 C27        -5.1470    5.0280    0.5810 c3        1 MOL      0.401653
     84 C28        -5.6120    3.9140   -0.4080 c3        1 MOL     -0.354708
     85 O15        -5.3960    6.2370   -0.1220 oh        1 MOL     -0.631253
     86 H35        -3.2370    5.2560   -1.1280 hn        1 MOL      0.275111
     87 H36        -3.3970    5.8870    1.5710 h1        1 MOL      0.102108
     88 H37        -5.6690    4.9380    1.5390 h1        1 MOL     -0.008296
     89 H38        -5.9750    5.9600   -0.8360 ho        1 MOL      0.379802
     90 H39        -5.1870    3.8580   -1.4080 hc        1 MOL      0.104252
     91 H40        -5.3760    2.9160   -0.0240 hc        1 MOL      0.104252
     92 H41        -6.7020    3.9220   -0.5120 hc        1 MOL      0.104252
     93 N9         -1.9250    3.5010    1.8770 n         1 MOL     -0.327855
     94 C29        -1.2570    2.4310    2.5460 c3        1 MOL     -0.057915
     95 C30        -1.6620    1.0980    2.0030 c         1 MOL      0.386868
     96 O16        -1.7120    0.9020    0.7840 o         1 MOL     -0.480412
     97 C31         0.2860    2.7420    2.6230 c3        1 MOL      0.156470
     98 C32         0.5220    3.8540    3.6180 c3        1 MOL      0.016212
     99 C33         1.0210    1.3970    2.9600 c3        1 MOL     -0.331442
    100 C34         1.7770    4.6690    3.3190 c3        1 MOL     -0.177585
    101 H42        -1.2730    4.2300    1.6130 hn        1 MOL      0.193851
    102 H43        -1.6510    2.4290    3.5660 h1        1 MOL      0.036257
    103 H44         0.6890    2.9770    1.6320 hc        1 MOL      0.044081
    104 H45         0.4940    3.4870    4.6500 hc        1 MOL      0.014700
    105 H46        -0.3790    4.4610    3.6030 hc        1 MOL      0.014700
    106 H47         0.6050    0.9810    3.8840 hc        1 MOL      0.063330
    107 H48         0.9740    0.6450    2.1800 hc        1 MOL      0.063330
    108 H49         2.0930    1.5740    3.0470 hc        1 MOL      0.063330
    109 H50         1.5810    5.2440    2.4090 hc        1 MOL      0.040818
    110 H51         2.0970    5.3370    4.1150 hc        1 MOL      0.040818
    111 H52         2.6060    4.0000    3.0660 hc        1 MOL      0.040818
    112 N10        -1.9630    0.0810    2.8550 n         1 MOL     -0.072479
    113 C35        -2.2070   -1.2840    2.4780 c3        1 MOL     -0.258816
    114 C36        -3.6600   -1.4890    2.0510 c         1 MOL      0.554214
    115 O17        -4.0120   -2.5890    1.6720 o         1 MOL     -0.591904
    116 C37        -1.8350   -2.3140    3.5220 c3        1 MOL      0.424480
    117 C38        -2.3940   -1.9570    4.8590 c3        1 MOL     -0.070999
    118 O18        -0.4360   -2.3210    3.7380 oh        1 MOL     -0.637692
    119 H53        -1.9260    0.3240    3.8370 hn        1 MOL      0.182031
    120 H54        -1.6350   -1.5560    1.5870 h1        1 MOL      0.143425
    121 H55        -2.2570   -3.2970    3.2820 h1        1 MOL      0.005467
    122 H56        -0.0100   -2.5850    2.9230 ho        1 MOL      0.347843
    123 H57        -2.6690   -2.8100    5.4750 hc        1 MOL     -0.004252
    124 H58        -1.7210   -1.2720    5.3810 hc        1 MOL     -0.004252
    125 H59        -3.3290   -1.4360    4.6650 hc        1 MOL     -0.004252
    126 N11        -4.5450   -0.4850    2.1470 n         1 MOL     -0.171838
    127 C39        -6.0380   -0.6520    1.8710 c3        1 MOL     -0.159962
    128 C40        -6.4020   -1.1790    0.4580 c         1 MOL      0.433760
    129 O19        -6.1350   -0.4690   -0.4840 o         1 MOL     -0.463766
    130 C41        -6.7570    0.7580    2.0790 c3        1 MOL      0.403423
    131 C42        -8.3050    0.5790    2.2410 c3        1 MOL     -0.476166
    132 O20        -6.2430    1.1580    3.3560 oh        1 MOL     -0.610004
    133 H60        -4.2990    0.4220    2.5230 hn        1 MOL      0.128602
    134 H61        -6.4320   -1.2860    2.6700 h1        1 MOL      0.055429
    135 H62        -6.4690    1.5000    1.3320 h1        1 MOL      0.044670
    136 H63        -6.6150    0.5220    3.9590 ho        1 MOL      0.386248
    137 H64        -8.7450    1.5310    2.5570 hc        1 MOL      0.120778
    138 H65        -8.7350    0.3620    1.2630 hc        1 MOL      0.120778
    139 H66        -8.5790   -0.1490    3.0030 hc        1 MOL      0.120778
    140 N12        -6.8830   -2.4040    0.3800 n         1 MOL     -0.368460
    141 C43        -6.9440   -3.1570   -0.9170 c3        1 MOL      0.135174
    142 C44        -5.7860   -2.8440   -1.9060 c         1 MOL      0.466951
    143 O21        -5.9930   -2.5200   -3.0660 o         1 MOL     -0.494779
    144 C45        -8.3730   -3.0030   -1.4490 c3        1 MOL     -0.090130
    145 C46        -9.4770   -3.6010   -0.4770 c3        1 MOL     -0.064257
    146 C47       -10.7510   -3.6190   -1.3320 c3        1 MOL      0.002313
    147 C48       -11.8420   -3.8430   -0.3060 c3        1 MOL      0.074571
    148 N13       -13.1490   -4.1980   -0.9170 n4        1 MOL     -0.177168
    149 H67        -7.3740   -2.8210    1.1660 hn        1 MOL      0.228647
    150 H68        -6.8090   -4.2080   -0.6460 h1        1 MOL      0.032046
    151 H69        -8.3830   -3.5070   -2.4120 hc        1 MOL      0.053906
    152 H70        -8.5220   -1.9540   -1.6910 hc        1 MOL      0.053906
    153 H71        -9.6820   -2.9560    0.3750 hc        1 MOL      0.036813
    154 H72        -9.1670   -4.6260   -0.2710 hc        1 MOL      0.036813
    155 H73       -10.7610   -4.4360   -2.0430 hc        1 MOL      0.033137
    156 H74       -10.9550   -2.6620   -1.8160 hc        1 MOL      0.033137
    157 H75       -11.8720   -2.9440    0.3100 hx        1 MOL      0.048687
    158 H76       -11.6520   -4.6810    0.3720 hx        1 MOL      0.048687
    159 H77       -13.7920   -4.4190   -0.1640 hn        1 MOL      0.216504
    160 H78       -13.5470   -3.4230   -1.4280 hn        1 MOL      0.216504
    161 H79       -13.1030   -4.8280   -1.7020 hn        1 MOL      0.216504
    162 N14        -4.5640   -2.9780   -1.4230 n         1 MOL     -0.544048
    163 C49        -3.3900   -2.4270   -2.1030 c3        1 MOL      0.159234
    164 C50        -2.1890   -2.3970   -1.0940 c         1 MOL      0.428251
    165 O22        -1.6890   -1.2790   -1.0010 o         1 MOL     -0.553070
    166 C51        -3.0520   -3.2470   -3.4030 c3        1 MOL      0.189843
    167 C52        -1.7020   -2.8070   -4.0800 c3        1 MOL     -0.333501
    168 C53        -1.6670   -1.2760   -4.3140 c         1 MOL      0.760504
    169 O23        -0.6460   -0.6820   -3.8870 o         1 MOL     -0.702154
    170 O24        -2.5920   -0.7240   -4.9220 o         1 MOL     -0.702154
    171 H80        -4.4670   -3.3460   -0.4870 hn        1 MOL      0.296278
    172 H81        -3.4600   -1.3800   -2.4230 h1        1 MOL      0.127378
    173 H82        -3.9140   -3.2820   -4.0620 hc        1 MOL     -0.023467
    174 H83        -3.0370   -4.3230   -3.2080 hc        1 MOL     -0.023467
    175 H84        -1.5380   -3.2750   -5.0550 hc        1 MOL      0.044454
    176 H85        -0.9220   -3.1180   -3.3890 hc        1 MOL      0.044454
    177 N15        -1.7710   -3.4520   -0.3430 n         1 MOL     -0.163360
    178 C54        -2.1720   -4.8890   -0.5100 c3        1 MOL     -0.401023
    179 H86        -2.9980   -5.1160    0.1640 h1        1 MOL      0.123973
    180 H87        -2.4860   -5.0620   -1.5390 h1        1 MOL      0.123973
    181 H88        -1.3250   -5.5340   -0.2750 h1        1 MOL      0.123973
    182 H89        -0.9290   -3.2630    0.1890 hn        1 MOL      0.312557
    183 Ca1         0.6250    0.1560   -1.7120 Ca        1 MOL      1.701212
    184 O25        -1.3210    1.9600   -2.2120 oh        1 MOL     -0.921221
    185 H90        -1.5370    2.8450   -2.4990 ho        1 MOL      0.426562
    186 H91        -2.1520    1.6010   -1.9070 ho        1 MOL      0.426562
    187 O26         1.4770   -2.3730   -2.3470 oh        1 MOL     -0.921221
    188 H92         0.8160   -2.9010   -2.7970 ho        1 MOL      0.426562
    189 H93         2.0330   -2.0340   -3.0550 ho        1 MOL      0.426562
@<TRIPOS>BOND
     1    1    2 1   
     2    1    4 1   
     3    1    5 1   
     4    1    6 1   
     5    2    3 2   
     6    2    7 1   
     7    7    8 1   
     8    7   15 1   
     9    8    9 1   
    10    8   11 1   
    11    8   16 1   
    12    9   10 2   
    13    9   19 1   
    14   11   12 1   
    15   11   17 1   
    16   11   18 1   
    17   12   13 1   
    18   12   14 1   
    19   19   20 1   
    20   19   28 1   
    21   20   21 1   
    22   20   23 1   
    23   20   29 1   
    24   21   22 2   
    25   21   41 1   
    26   23   24 1   
    27   23   30 1   
    28   23   31 1   
    29   24   25 1   
    30   24   32 1   
    31   24   33 1   
    32   25   26 1   
    33   25   34 1   
    34   25   35 1   
    35   26   27 1   
    36   26   36 1   
    37   26   37 1   
    38   27   38 1   
    39   27   39 1   
    40   27   40 1   
    41   41   42 1   
    42   41   49 1   
    43   42   43 1   
    44   42   45 1   
    45   42   50 1   
    46   43   44 2   
    47   43   53 1   
    48   45   46 1   
    49   45   51 1   
    50   45   52 1   
    51   46   47 1   
    52   46   48 1   
    53   53   54 1   
    54   53   57 1   
    55   54   55 1   
    56   54   58 1   
    57   54   59 1   
    58   55   56 2   
    59   55   60 1   
    60   60   61 1   
    61   60   68 1   
    62   61   62 1   
    63   61   64 1   
    64   61   69 1   
    65   62   63 2   
    66   62   72 1   
    67   64   65 1   
    68   64   70 1   
    69   64   71 1   
    70   65   66 1   
    71   65   67 1   
    72   72   73 1   
    73   72   76 1   
    74   73   74 1   
    75   73   77 1   
    76   73   78 1   
    77   74   75 2   
    78   74   79 1   
    79   79   80 1   
    80   79   86 1   
    81   80   81 1   
    82   80   83 1   
    83   80   87 1   
    84   81   82 2   
    85   81   93 1   
    86   83   84 1   
    87   83   85 1   
    88   83   88 1   
    89   84   90 1   
    90   84   91 1   
    91   84   92 1   
    92   85   89 1   
    93   93   94 1   
    94   93  101 1   
    95   94   95 1   
    96   94   97 1   
    97   94  102 1   
    98   95   96 2   
    99   95  112 1   
   100   97   98 1   
   101   97   99 1   
   102   97  103 1   
   103   98  100 1   
   104   98  104 1   
   105   98  105 1   
   106   99  106 1   
   107   99  107 1   
   108   99  108 1   
   109  100  109 1   
   110  100  110 1   
   111  100  111 1   
   112  112  113 1   
   113  112  119 1   
   114  113  114 1   
   115  113  116 1   
   116  113  120 1   
   117  114  115 2   
   118  114  126 1   
   119  116  117 1   
   120  116  118 1   
   121  116  121 1   
   122  117  123 1   
   123  117  124 1   
   124  117  125 1   
   125  118  122 1   
   126  126  127 1   
   127  126  133 1   
   128  127  128 1   
   129  127  130 1   
   130  127  134 1   
   131  128  129 2   
   132  128  140 1   
   133  130  131 1   
   134  130  132 1   
   135  130  135 1   
   136  131  137 1   
   137  131  138 1   
   138  131  139 1   
   139  132  136 1   
   140  140  141 1   
   141  140  149 1   
   142  141  142 1   
   143  141  144 1   
   144  141  150 1   
   145  142  143 2   
   146  142  162 1   
   147  144  145 1   
   148  144  151 1   
   149  144  152 1   
   150  145  146 1   
   151  145  153 1   
   152  145  154 1   
   153  146  147 1   
   154  146  155 1   
   155  146  156 1   
   156  147  148 1   
   157  147  157 1   
   158  147  158 1   
   159  148  159 1   
   160  148  160 1   
   161  148  161 1   
   162  162  163 1   
   163  162  171 1   
   164  163  164 1   
   165  163  166 1   
   166  163  172 1   
   167  164  165 2   
   168  164  177 1   
   169  166  167 1   
   170  166  173 1   
   171  166  174 1   
   172  167  168 1   
   173  167  175 1   
   174  167  176 1   
   175  168  169 1   
   176  168  170 1   
   177  177  178 1   
   178  177  182 1   
   179  178  179 1   
   180  178  180 1   
   181  178  181 1   
   182  184  185 1   
   183  184  186 1   
   184  187  188 1   
   185  187  189 1   
@<TRIPOS>SUBSTRUCTURE
     1 MOL         1 TEMP              0 ****  ****    0 ROOT
