@<TRIPOS>MOLECULE
MOL
  195   189     1     0     0
SMALL
resp


@<TRIPOS>ATOM
      1 C1          4.1140   -1.9080   -2.6510 c3        1 MOL     -0.103118
      2 C2          3.0650   -2.7080   -1.7810 c         1 MOL      0.567338
      3 O1          2.0330   -2.1380   -1.3950 o         1 MOL     -0.506655
      4 H1          3.9370   -2.1100   -3.7080 hc        1 MOL      0.011079
      5 H2          4.0050   -0.8410   -2.4620 hc        1 MOL      0.011079
      6 H3          5.1230   -2.2240   -2.3850 hc        1 MOL      0.011079
      7 N1          3.3530   -3.9500   -1.4380 n         1 MOL     -0.338531
      8 C3          2.5760   -4.8760   -0.6180 c3        1 MOL     -0.189372
      9 C4          1.0930   -4.9690   -0.9860 c         1 MOL      0.837803
     10 O2          0.1970   -5.0290   -0.0990 o         1 MOL     -0.579125
     11 C5          2.8160   -4.6670    0.9030 c3        1 MOL     -0.369517
     12 C6          4.2280   -4.5570    1.3700 c         1 MOL      0.912095
     13 O3          4.6340   -3.8150    2.3180 o         1 MOL     -0.809946
     14 O4          5.0840   -5.0470    0.6500 o         1 MOL     -0.809946
     15 H4          4.1740   -4.3490   -1.8710 hn        1 MOL      0.254591
     16 H5          2.9980   -5.8050   -1.0010 h1        1 MOL      0.114723
     17 H6          2.2480   -5.4040    1.4650 hc        1 MOL      0.137036
     18 H7          2.3110   -3.7360    1.1800 hc        1 MOL      0.137036
     19 N2          0.7370   -4.9710   -2.2890 n         1 MOL     -0.705052
     20 C7         -0.6200   -4.8630   -2.7460 c3        1 MOL     -0.006913
     21 C8         -1.5250   -6.0190   -2.5360 c         1 MOL      0.618202
     22 O5         -1.1870   -7.1980   -2.8400 o         1 MOL     -0.593119
     23 C9         -0.5910   -4.5670   -4.2650 c3        1 MOL      0.040847
     24 C10         0.1580   -5.6060   -5.1290 c3        1 MOL      0.194630
     25 C11        -0.0170   -3.1150   -4.4900 c3        1 MOL     -0.093789
     26 C12        -0.2350   -5.5240   -6.5670 c3        1 MOL     -0.162257
     27 H8          1.4380   -4.8150   -2.9990 hn        1 MOL      0.270482
     28 H9         -1.0420   -4.0800   -2.1290 h1        1 MOL      0.143502
     29 H10        -1.6370   -4.4790   -4.5720 hc        1 MOL      0.026583
     30 H11        -0.0460   -6.6230   -4.7940 hc        1 MOL     -0.030268
     31 H12         1.2290   -5.4420   -5.2070 hc        1 MOL     -0.030268
     32 H13        -0.1540   -2.7650   -5.5040 hc        1 MOL      0.039146
     33 H14        -0.5750   -2.3950   -3.9000 hc        1 MOL      0.039146
     34 H15         1.0500   -3.0430   -4.2960 hc        1 MOL      0.039146
     35 H16         0.5050   -6.0970   -7.1360 hc        1 MOL      0.015347
     36 H17        -1.2180   -5.9960   -6.6900 hc        1 MOL      0.015347
     37 H18        -0.2610   -4.5250   -6.9990 hc        1 MOL      0.015347
     38 N3         -2.7470   -5.8070   -1.9800 n         1 MOL     -0.536276
     39 C13        -3.3410   -4.5860   -1.2120 c3        1 MOL     -0.005533
     40 C14        -4.2130   -5.0640   -0.0260 c         1 MOL      0.630297
     41 O6         -5.1230   -5.8250   -0.2480 o         1 MOL     -0.506157
     42 C15        -4.1730   -3.7270   -2.1640 c3        1 MOL     -0.101279
     43 C16        -5.1440   -2.7520   -1.5460 c         1 MOL      0.693880
     44 O7         -6.3240   -2.6170   -2.0540 o         1 MOL     -0.703401
     45 O8         -4.8150   -2.2040   -0.4750 o         1 MOL     -0.703401
     46 H19        -3.2680   -6.6720   -1.8640 hn        1 MOL      0.293346
     47 H20        -2.4940   -4.0040   -0.8290 h1        1 MOL      0.047513
     48 H21        -4.7290   -4.4330   -2.7760 hc        1 MOL      0.012668
     49 H22        -3.5570   -3.1420   -2.8580 hc        1 MOL      0.012668
     50 N4         -3.8750   -4.5870    1.2100 n         1 MOL     -0.469624
     51 C17        -4.5150   -4.9960    2.5010 c3        1 MOL     -0.211750
     52 C18        -5.6880   -4.2120    2.9150 c         1 MOL      0.612341
     53 O9         -6.6060   -4.6840    3.5560 o         1 MOL     -0.622457
     54 H23        -3.0740   -3.9740    1.2800 hn        1 MOL      0.344798
     55 H24        -3.7190   -5.0030    3.2490 h1        1 MOL      0.100472
     56 H25        -4.7990   -6.0430    2.4450 h1        1 MOL      0.100472
     57 N5         -5.6820   -2.9770    2.4910 n         1 MOL     -0.330665
     58 C19        -6.5210   -1.9220    3.0210 c3        1 MOL      0.126476
     59 C20        -7.5720   -1.3810    2.0780 c         1 MOL      0.489306
     60 O10        -8.6910   -1.1900    2.5620 o         1 MOL     -0.593168
     61 C21        -5.7560   -0.7040    3.6390 c3        1 MOL     -0.393555
     62 C22        -4.7040   -0.2780    2.6760 c         1 MOL      0.800506
     63 O11        -3.7480   -0.9780    2.4420 o         1 MOL     -0.707128
     64 O12        -4.8690    0.7570    2.0310 o         1 MOL     -0.707128
     65 H26        -4.8570   -2.7310    1.9670 hn        1 MOL      0.237760
     66 H27        -7.1030   -2.3910    3.8230 h1        1 MOL      0.049923
     67 H28        -5.3510   -0.9890    4.6090 hc        1 MOL      0.074100
     68 H29        -6.5250    0.0700    3.6910 hc        1 MOL      0.074100
     69 N6         -7.1730   -1.1600    0.8080 n         1 MOL     -0.322933
     70 C23        -8.0220   -0.4920   -0.1260 c3        1 MOL      0.045837
     71 C24        -8.0500    1.0630    0.0760 c         1 MOL      0.246589
     72 O13        -8.9360    1.6620   -0.5480 o         1 MOL     -0.574884
     73 H30        -6.3530   -1.5960    0.4110 hn        1 MOL      0.302615
     74 H31        -9.0010   -0.9590   -0.1150 h1        1 MOL      0.064077
     75 H32        -7.7450   -0.7270   -1.1530 h1        1 MOL      0.064077
     76 N7         -7.2090    1.6820    0.8870 n         1 MOL      0.198107
     77 C25        -6.9350    3.0840    1.0560 c3        1 MOL     -0.210746
     78 C26        -6.5080    3.9440   -0.1160 c         1 MOL      0.645690
     79 O14        -7.0180    5.0400   -0.2540 o         1 MOL     -0.549801
     80 C27        -8.0630    3.7170    1.8910 c3        1 MOL      0.200805
     81 C28        -8.3790    2.9990    3.2610 c3        1 MOL     -0.313158
     82 C29        -7.4370    3.3990    4.3920 c         1 MOL      0.759840
     83 N8         -7.6960    2.8880    5.5840 n         1 MOL     -0.859223
     84 O15        -6.6810    4.3400    4.3480 o         1 MOL     -0.575400
     85 H33        -6.6120    1.0580    1.3970 hn        1 MOL      0.048915
     86 H34        -6.0920    3.0850    1.7480 h1        1 MOL      0.079483
     87 H35        -8.9690    3.8150    1.3060 hc        1 MOL     -0.019759
     88 H36        -7.8310    4.7730    2.0550 hc        1 MOL     -0.019759
     89 H37        -8.3820    1.9060    3.1420 hc        1 MOL      0.060931
     90 H38        -9.3360    3.4300    3.5260 hc        1 MOL      0.060931
     91 H39        -8.5300    2.3270    5.7390 hn        1 MOL      0.357133
     92 H40        -7.0480    3.1300    6.3200 hn        1 MOL      0.357133
     93 N9         -5.7810    3.3590   -1.0570 n         1 MOL     -0.514090
     94 C30        -5.4860    3.8890   -2.3780 c3        1 MOL     -0.077228
     95 C31        -4.0230    3.8250   -2.6850 c         1 MOL      0.706604
     96 O16        -3.5600    4.6430   -3.4480 o         1 MOL     -0.608276
     97 C32        -6.3680    3.2380   -3.4500 c3        1 MOL      0.223354
     98 C33        -6.2340    1.6860   -3.5240 c3        1 MOL     -0.371328
     99 C34        -7.8100    3.7030   -3.2750 c3        1 MOL     -0.371328
    100 H41        -5.6500    2.3830   -0.8540 hn        1 MOL      0.238246
    101 H42        -5.7620    4.9420   -2.4340 h1        1 MOL      0.106597
    102 H43        -6.1010    3.5900   -4.4490 hc        1 MOL     -0.032851
    103 H44        -5.1870    1.3480   -3.5540 hc        1 MOL      0.099471
    104 H45        -6.7310    1.1750   -2.7010 hc        1 MOL      0.099471
    105 H46        -6.7870    1.2870   -4.3700 hc        1 MOL      0.099471
    106 H47        -7.7230    4.7500   -2.9900 hc        1 MOL      0.099471
    107 H48        -8.4090    3.4760   -4.1660 hc        1 MOL      0.099471
    108 H49        -8.3650    3.2370   -2.4610 hc        1 MOL      0.099471
    109 N10        -3.3110    2.8070   -2.1680 n         1 MOL     -0.581756
    110 C35        -1.8880    2.4650   -2.4060 c3        1 MOL      0.254342
    111 C36        -1.0000    2.8270   -1.2210 c         1 MOL      0.595208
    112 O17        -1.4410    3.0010   -0.0890 o         1 MOL     -0.541467
    113 C37        -1.8710    0.9770   -2.8190 c3        1 MOL     -0.044179
    114 C38        -0.5690    0.2580   -2.7420 c         1 MOL      0.508960
    115 N11        -0.3090   -0.5500   -1.7460 n         1 MOL     -0.661931
    116 O18         0.3710    0.4470   -3.4960 o         1 MOL     -0.595439
    117 H50        -3.8080    2.1480   -1.5890 hn        1 MOL      0.315947
    118 H51        -1.4770    3.0500   -3.2320 h1        1 MOL      0.043783
    119 H52        -2.0550    0.9740   -3.8950 hc        1 MOL      0.022477
    120 H53        -2.5020    0.3180   -2.2380 hc        1 MOL      0.022477
    121 H54        -0.8720   -0.5290   -0.9060 hn        1 MOL      0.332694
    122 H55         0.5990   -0.9760   -1.6680 hn        1 MOL      0.332694
    123 N12         0.3490    2.9590   -1.4080 n         1 MOL     -0.654544
    124 C39         1.2280    3.2170   -0.3410 c3        1 MOL      0.317550
    125 C40         2.4830    3.8390   -0.8660 c         1 MOL      0.663855
    126 O19         2.8570    3.8140   -2.0620 o         1 MOL     -0.576576
    127 C41         1.5600    1.8830    0.4080 c3        1 MOL     -0.138197
    128 C42         2.1350    2.0000    1.7840 ca        1 MOL     -0.011142
    129 C43         3.5160    1.9560    1.9810 ca        1 MOL     -0.157453
    130 C44         1.2830    2.2460    2.8470 ca        1 MOL     -0.157453
    131 C45         4.0430    2.3560    3.2140 ca        1 MOL     -0.245658
    132 C46         1.7720    2.7480    4.1100 ca        1 MOL     -0.245658
    133 C47         3.1920    2.7730    4.2750 ca        1 MOL      0.315545
    134 O20         3.6940    3.1920    5.4160 oh        1 MOL     -0.495023
    135 H56         0.7730    2.7890   -2.3150 hn        1 MOL      0.293471
    136 H57         0.7550    3.9590    0.2990 h1        1 MOL      0.041443
    137 H58         2.2020    1.2390   -0.1920 hc        1 MOL      0.088414
    138 H59         0.6090    1.3480    0.4270 hc        1 MOL      0.088414
    139 H60         4.1230    1.6950    1.1350 ha        1 MOL      0.166251
    140 H61         0.2130    2.2300    2.7150 ha        1 MOL      0.166251
    141 H62         5.1050    2.4960    3.3770 ha        1 MOL      0.149465
    142 H63         1.1640    3.0280    4.9530 ha        1 MOL      0.149465
    143 H64         4.6290    3.3600    5.2950 ho        1 MOL      0.363294
    144 N13         3.2670    4.4250    0.0530 n         1 MOL     -0.981430
    145 C48         4.5430    5.1880   -0.1280 c3        1 MOL      0.572105
    146 C49         5.5620    4.7460    0.9040 c         1 MOL      0.369271
    147 O21         5.5810    5.1980    2.0450 o         1 MOL     -0.497957
    148 C50         4.2320    6.7090   -0.2140 c3        1 MOL      0.249381
    149 C51         5.2960    7.5210   -0.8110 c3        1 MOL     -0.276597
    150 C52         4.7350    8.9580   -0.9320 c         1 MOL      0.656158
    151 O22         4.6310    9.4050   -2.0930 o         1 MOL     -0.680070
    152 O23         4.2150    9.5320    0.0430 o         1 MOL     -0.680070
    153 H65         2.9030    4.3420    0.9960 hn        1 MOL      0.369764
    154 H66         4.9090    4.9720   -1.1360 h1        1 MOL     -0.045188
    155 H67         4.0620    7.0050    0.8270 hc        1 MOL     -0.047097
    156 H68         3.3060    6.7170   -0.7790 hc        1 MOL     -0.047097
    157 H69         5.5920    7.1210   -1.7830 hc        1 MOL      0.025745
    158 H70         6.1930    7.5570   -0.1960 hc        1 MOL      0.025745
    159 N14         6.3830    3.6560    0.6120 n         1 MOL     -0.460232
    160 C53         6.6470    2.9060   -0.6710 c3        1 MOL     -0.022833
    161 C54         7.2570    3.8090   -1.7700 c         1 MOL      0.469146
    162 O24         8.0950    4.7120   -1.4820 o         1 MOL     -0.527266
    163 C55         7.4500    1.7140   -0.4200 c3        1 MOL      0.096316
    164 C56         6.6760    0.6140    0.3710 c3        1 MOL      0.063920
    165 C57         7.4610   -0.7460    0.4940 c         1 MOL      0.746359
    166 O25         8.6740   -0.7800    0.8090 o         1 MOL     -0.763895
    167 O26         6.8250   -1.8540    0.4950 o         1 MOL     -0.763895
    168 H71         6.8440    3.2990    1.4370 hn        1 MOL      0.265602
    169 H72         5.6580    2.6180   -1.0440 h1        1 MOL      0.064629
    170 H73         8.3920    2.0000    0.0530 hc        1 MOL     -0.031034
    171 H74         7.8160    1.2360   -1.3310 hc        1 MOL     -0.031034
    172 H75         5.8120    0.2710   -0.2050 hc        1 MOL     -0.031845
    173 H76         6.3900    1.0140    1.3480 hc        1 MOL     -0.031845
    174 N15         6.8600    3.5780   -3.0200 n         1 MOL     -0.271272
    175 C58         7.2670    4.3200   -4.2370 c3        1 MOL     -0.199749
    176 H77         7.3330    3.6300   -5.0780 h1        1 MOL      0.102306
    177 H78         6.5290    5.0910   -4.4570 h1        1 MOL      0.102306
    178 H79         8.2400    4.7840   -4.0720 h1        1 MOL      0.102306
    179 H80         6.1710    2.8470   -3.1280 hn        1 MOL      0.250400
    180 Ca1         7.2000   -4.0200    1.8560 Ca        1 MOL      1.669736
    181 O27         6.3630   -5.9370    3.6010 oh        1 MOL     -0.801842
    182 H81         5.7420   -6.6650    3.5590 ho        1 MOL      0.389706
    183 H82         6.6700   -5.9420    4.5140 ho        1 MOL      0.389706
    184 O28         6.6140   -1.9320    3.5070 oh        1 MOL     -0.801842
    185 H83         5.6620   -1.8980    3.5600 ho        1 MOL      0.389706
    186 H84         6.9200   -1.2020    4.0530 ho        1 MOL      0.389706
    187 O29         9.6480   -3.3500    0.4090 oh        1 MOL     -0.801842
    188 H85         9.5600   -2.4100    0.5740 ho        1 MOL      0.389706
    189 H86         9.7480   -3.4090   -0.5490 ho        1 MOL      0.389706
    190 O30         8.8630   -6.0100    2.0570 oh        1 MOL     -0.801842
    191 H87         9.4800   -6.2810    1.3840 ho        1 MOL      0.389706
    192 H88         8.7410   -6.7860    2.6020 ho        1 MOL      0.389706
    193 O31         8.5070   -3.7970    4.1310 oh        1 MOL     -0.801842
    194 H89         9.2870   -4.3220    4.3200 ho        1 MOL      0.389706
    195 H90         8.5550   -3.0670    4.7540 ho        1 MOL      0.389706
@<TRIPOS>BOND
     1    1    2 1   
     2    1    4 1   
     3    1    5 1   
     4    1    6 1   
     5    2    3 2   
     6    2    7 1   
     7    7    8 1   
     8    7   15 1   
     9    8    9 1   
    10    8   11 1   
    11    8   16 1   
    12    9   10 2   
    13    9   19 1   
    14   11   12 1   
    15   11   17 1   
    16   11   18 1   
    17   12   13 1   
    18   12   14 1   
    19   19   20 1   
    20   19   27 1   
    21   20   21 1   
    22   20   23 1   
    23   20   28 1   
    24   21   22 2   
    25   21   38 1   
    26   23   24 1   
    27   23   25 1   
    28   23   29 1   
    29   24   26 1   
    30   24   30 1   
    31   24   31 1   
    32   25   32 1   
    33   25   33 1   
    34   25   34 1   
    35   26   35 1   
    36   26   36 1   
    37   26   37 1   
    38   38   39 1   
    39   38   46 1   
    40   39   40 1   
    41   39   42 1   
    42   39   47 1   
    43   40   41 2   
    44   40   50 1   
    45   42   43 1   
    46   42   48 1   
    47   42   49 1   
    48   43   44 1   
    49   43   45 1   
    50   50   51 1   
    51   50   54 1   
    52   51   52 1   
    53   51   55 1   
    54   51   56 1   
    55   52   53 2   
    56   52   57 1   
    57   57   58 1   
    58   57   65 1   
    59   58   59 1   
    60   58   61 1   
    61   58   66 1   
    62   59   60 2   
    63   59   69 1   
    64   61   62 1   
    65   61   67 1   
    66   61   68 1   
    67   62   63 1   
    68   62   64 1   
    69   69   70 1   
    70   69   73 1   
    71   70   71 1   
    72   70   74 1   
    73   70   75 1   
    74   71   72 2   
    75   71   76 1   
    76   76   77 1   
    77   76   85 1   
    78   77   78 1   
    79   77   80 1   
    80   77   86 1   
    81   78   79 2   
    82   78   93 1   
    83   80   81 1   
    84   80   87 1   
    85   80   88 1   
    86   81   82 1   
    87   81   89 1   
    88   81   90 1   
    89   82   83 1   
    90   82   84 2   
    91   83   91 1   
    92   83   92 1   
    93   93   94 1   
    94   93  100 1   
    95   94   95 1   
    96   94   97 1   
    97   94  101 1   
    98   95   96 2   
    99   95  109 1   
   100   97   98 1   
   101   97   99 1   
   102   97  102 1   
   103   98  103 1   
   104   98  104 1   
   105   98  105 1   
   106   99  106 1   
   107   99  107 1   
   108   99  108 1   
   109  109  110 1   
   110  109  117 1   
   111  110  111 1   
   112  110  113 1   
   113  110  118 1   
   114  111  112 2   
   115  111  123 1   
   116  113  114 1   
   117  113  119 1   
   118  113  120 1   
   119  114  115 1   
   120  114  116 2   
   121  115  121 1   
   122  115  122 1   
   123  123  124 1   
   124  123  135 1   
   125  124  125 1   
   126  124  127 1   
   127  124  136 1   
   128  125  126 2   
   129  125  144 1   
   130  127  128 1   
   131  127  137 1   
   132  127  138 1   
   133  128  129 ar  
   134  128  130 ar  
   135  129  131 ar  
   136  129  139 1   
   137  130  132 ar  
   138  130  140 1   
   139  131  133 ar  
   140  131  141 1   
   141  132  133 ar  
   142  132  142 1   
   143  133  134 1   
   144  134  143 1   
   145  144  145 1   
   146  144  153 1   
   147  145  146 1   
   148  145  148 1   
   149  145  154 1   
   150  146  147 2   
   151  146  159 1   
   152  148  149 1   
   153  148  155 1   
   154  148  156 1   
   155  149  150 1   
   156  149  157 1   
   157  149  158 1   
   158  150  151 1   
   159  150  152 1   
   160  159  160 1   
   161  159  168 1   
   162  160  161 1   
   163  160  163 1   
   164  160  169 1   
   165  161  162 2   
   166  161  174 1   
   167  163  164 1   
   168  163  170 1   
   169  163  171 1   
   170  164  165 1   
   171  164  172 1   
   172  164  173 1   
   173  165  166 1   
   174  165  167 1   
   175  174  175 1   
   176  174  179 1   
   177  175  176 1   
   178  175  177 1   
   179  175  178 1   
   180  181  182 1   
   181  181  183 1   
   182  184  185 1   
   183  184  186 1   
   184  187  188 1   
   185  187  189 1   
   186  190  191 1   
   187  190  192 1   
   188  193  194 1   
   189  193  195 1   
@<TRIPOS>SUBSTRUCTURE
     1 MOL         1 TEMP              0 ****  ****    0 ROOT
