@<TRIPOS>MOLECULE
MOL
  181   177     1     0     0
SMALL
resp


@<TRIPOS>ATOM
      1 C1          2.1400   -2.3600    4.9540 c3        1 MOL     -0.548644
      2 C2          3.3350   -1.4530    4.4210 c         1 MOL      0.724890
      3 O1          3.3480   -0.2020    4.5090 o         1 MOL     -0.567245
      4 H1          2.5130   -3.0390    5.7220 hc        1 MOL      0.146905
      5 H2          1.3620   -1.7260    5.3790 hc        1 MOL      0.146905
      6 H3          1.7260   -2.9400    4.1280 hc        1 MOL      0.146905
      7 N1          4.3710   -2.1020    3.8720 n         1 MOL     -0.623988
      8 C3          5.6090   -1.5220    3.3070 c3        1 MOL      0.111165
      9 C4          6.2380   -2.2470    2.0880 c         1 MOL      0.527306
     10 O2          7.1230   -1.6010    1.4390 o         1 MOL     -0.529387
     11 C5          6.6920   -1.4520    4.4120 c3        1 MOL     -0.220209
     12 C6          7.1350   -2.7840    5.1380 c         1 MOL      0.772821
     13 O3          7.1740   -3.9070    4.5500 o         1 MOL     -0.707571
     14 O4          7.6290   -2.7100    6.3060 o         1 MOL     -0.707571
     15 H4          4.3040   -3.1170    3.9070 hn        1 MOL      0.309250
     16 H5          5.4230   -0.5100    2.9470 h1        1 MOL      0.088535
     17 H6          6.2080   -0.7720    5.1090 hc        1 MOL      0.033817
     18 H7          7.5780   -0.9990    3.9530 hc        1 MOL      0.033817
     19 N2          5.7110   -3.4030    1.6150 n         1 MOL     -0.540946
     20 C7          6.2450   -4.1180    0.4470 c3        1 MOL      0.184567
     21 C8          6.1460   -3.3570   -0.9290 c         1 MOL      0.524396
     22 O5          7.0690   -3.3200   -1.7960 o         1 MOL     -0.528685
     23 C9          7.6280   -4.6600    0.8210 c3        1 MOL     -0.164329
     24 H8          4.9310   -3.8060    2.1030 hn        1 MOL      0.335908
     25 H9          5.6020   -4.9830    0.2860 h1        1 MOL      0.073436
     26 H10         8.0020   -5.2950    0.0110 hc        1 MOL      0.044244
     27 H11         8.2880   -3.7950    0.7750 hc        1 MOL      0.044244
     28 H12         7.5990   -5.2460    1.7380 hc        1 MOL      0.044244
     29 N3          4.9350   -2.7020   -1.1230 n         1 MOL     -0.462518
     30 C10         4.4500   -2.0050   -2.3830 c3        1 MOL     -0.135043
     31 C11         5.3980   -0.9910   -2.9610 c         1 MOL      0.460451
     32 O6          5.4850   -0.8070   -4.1710 o         1 MOL     -0.556669
     33 C12         4.1220   -3.0620   -3.4640 c3        1 MOL     -0.020613
     34 C13         3.0890   -4.0780   -3.0340 c         1 MOL      0.593489
     35 O7          3.0620   -5.1220   -3.7080 o         1 MOL     -0.692526
     36 O8          2.2780   -3.7490   -2.0990 o         1 MOL     -0.692526
     37 H13         4.2580   -2.8270   -0.3910 hn        1 MOL      0.269310
     38 H14         3.5440   -1.4960   -2.0650 h1        1 MOL      0.172376
     39 H15         5.0230   -3.6300   -3.7210 hc        1 MOL      0.025647
     40 H16         3.7220   -2.5460   -4.3350 hc        1 MOL      0.025647
     41 N4          6.1500   -0.2740   -2.1680 n         1 MOL     -0.052516
     42 C14         6.9910    0.8290   -2.6350 c3        1 MOL     -0.325430
     43 C15         6.2540    2.1610   -2.6900 c         1 MOL      0.729450
     44 O9          6.8800    3.2090   -2.6610 o         1 MOL     -0.591910
     45 H17         6.0590   -0.4710   -1.1830 hn        1 MOL      0.153099
     46 H18         7.4460    0.5630   -3.5800 h1        1 MOL      0.136094
     47 H19         7.7810    0.9060   -1.8900 h1        1 MOL      0.136094
     48 N5          4.8850    2.0950   -2.8980 n         1 MOL     -0.567145
     49 C16         4.0470    3.2110   -3.1530 c3        1 MOL      0.269110
     50 C17         3.8530    4.0950   -1.9230 c         1 MOL      0.498699
     51 O10         3.8930    3.5560   -0.8110 o         1 MOL     -0.509526
     52 C18         2.7210    2.7560   -3.7560 c3        1 MOL      0.154143
     53 C19         2.0670    1.4930   -3.2030 c         1 MOL      0.347570
     54 N6          1.0800    1.5790   -2.3570 n         1 MOL     -0.468280
     55 O11         2.4540    0.3460   -3.3990 o         1 MOL     -0.507427
     56 H20         4.4750    1.2180   -3.1660 hn        1 MOL      0.243774
     57 H21         4.5210    3.8260   -3.9190 h1        1 MOL     -0.032221
     58 H22         2.8190    2.6990   -4.8380 hc        1 MOL     -0.035877
     59 H23         2.0660    3.6310   -3.7140 hc        1 MOL     -0.035877
     60 H24         0.8660    2.4790   -1.9530 hn        1 MOL      0.248288
     61 H25         0.5210    0.7570   -2.1680 hn        1 MOL      0.248288
     62 N7          3.6100    5.3630   -2.0880 n         1 MOL     -0.468397
     63 C20         3.2740    6.3500   -1.0890 c3        1 MOL      0.162150
     64 C21         1.8210    6.7780   -1.1190 c         1 MOL      0.479785
     65 O12         1.0820    6.3310   -1.9880 o         1 MOL     -0.503097
     66 H26         3.5560    5.7100   -3.0380 hn        1 MOL      0.252270
     67 H27         3.9080    7.2370   -1.1230 h1        1 MOL      0.024188
     68 H28         3.3970    5.9640   -0.0820 h1        1 MOL      0.024188
     69 N8          1.3310    7.5190   -0.1360 n         1 MOL     -0.362096
     70 C22        -0.0400    7.9550    0.0130 c3        1 MOL     -0.361215
     71 C23        -1.0090    6.8690    0.6140 c         1 MOL      0.552069
     72 O13        -2.2120    7.1420    0.8100 o         1 MOL     -0.551259
     73 C24        -0.1120    9.2480    0.8140 c3        1 MOL      0.505886
     74 C25         0.2840    8.9860    2.3140 c3        1 MOL     -0.222482
     75 O14         0.7460   10.2940    0.2790 oh        1 MOL     -0.649151
     76 H29         2.0190    7.8290    0.5430 hn        1 MOL      0.238774
     77 H30        -0.4930    8.1020   -0.9570 h1        1 MOL      0.180396
     78 H31        -1.1350    9.6230    0.8640 h1        1 MOL      0.025952
     79 H32         1.6640   10.0180    0.3190 ho        1 MOL      0.385503
     80 H33         0.8260    9.8850    2.6410 hc        1 MOL      0.046011
     81 H34        -0.5660    8.8760    2.9840 hc        1 MOL      0.046011
     82 H35         0.9770    8.1560    2.3930 hc        1 MOL      0.046011
     83 N9         -0.5050    5.6260    0.9270 n         1 MOL     -0.260883
     84 C26        -1.3560    4.5410    1.4000 c3        1 MOL     -0.146485
     85 C27        -1.0550    3.2690    0.5860 c         1 MOL      0.559341
     86 O15        -0.0110    3.1460    0.0790 o         1 MOL     -0.423229
     87 C28        -1.2850    4.3890    2.9660 c3        1 MOL     -0.011878
     88 C29         0.1150    3.9630    3.4870 c3        1 MOL      0.334834
     89 C30        -1.7670    5.6090    3.7350 c3        1 MOL     -0.388759
     90 C31        -0.0600    3.1050    4.7190 c3        1 MOL     -0.243587
     91 H36         0.4960    5.4770    0.8290 hn        1 MOL      0.200057
     92 H37        -2.3630    4.8000    1.0510 h1        1 MOL      0.100766
     93 H38        -1.9840    3.5880    3.1900 hc        1 MOL      0.021734
     94 H39         0.7310    4.8120    3.7750 hc        1 MOL     -0.026459
     95 H40         0.7540    3.4580    2.7740 hc        1 MOL     -0.026459
     96 H41        -1.6980    5.4960    4.8110 hc        1 MOL      0.106737
     97 H42        -1.1800    6.4860    3.4600 hc        1 MOL      0.106737
     98 H43        -2.7990    5.8090    3.4390 hc        1 MOL      0.106737
     99 H44        -0.4710    3.6320    5.5780 hc        1 MOL      0.040006
    100 H45        -0.6370    2.2140    4.4760 hc        1 MOL      0.040006
    101 H46         0.9330    2.7110    4.9340 hc        1 MOL      0.040006
    102 N10        -2.0410    2.4050    0.5570 n         1 MOL     -0.416281
    103 C32        -1.9990    1.0790   -0.1500 c3        1 MOL     -0.194949
    104 C33        -3.4050    0.3070   -0.1800 c         1 MOL      0.684058
    105 O16        -3.4230   -0.8850   -0.3000 o         1 MOL     -0.643811
    106 C34        -0.9420    0.1580    0.4950 c3        1 MOL     -0.089900
    107 C35        -0.4040   -0.8430   -0.5270 c         1 MOL      0.739591
    108 O17        -0.5640   -0.6640   -1.7940 o         1 MOL     -0.707442
    109 O18         0.1630   -1.9060   -0.1460 o         1 MOL     -0.707442
    110 H47        -2.9050    2.5720    1.0550 hn        1 MOL      0.271070
    111 H48        -1.6770    1.3630   -1.1450 h1        1 MOL      0.084364
    112 H49        -1.4420   -0.4470    1.2520 hc        1 MOL      0.059785
    113 H50        -0.1680    0.6830    1.0380 hc        1 MOL      0.059785
    114 N11        -4.5320    1.0540   -0.0550 n         1 MOL     -0.431863
    115 C36        -5.8260    0.5730   -0.5520 c3        1 MOL     -0.026053
    116 C37        -6.1580   -0.6200    0.2780 c         1 MOL      0.312724
    117 O19        -6.0200   -0.4970    1.4890 o         1 MOL     -0.475785
    118 C38        -6.8960    1.6890   -0.4010 c3        1 MOL     -0.047188
    119 C39        -8.2580    1.2530   -0.8360 ca        1 MOL     -0.009105
    120 C40        -8.5190    1.0870   -2.1980 ca        1 MOL     -0.120321
    121 C41        -9.2900    0.8240    0.0820 ca        1 MOL     -0.120321
    122 C42        -9.8290    0.7610   -2.6340 ca        1 MOL     -0.129262
    123 C43       -10.5550    0.3090   -0.3510 ca        1 MOL     -0.129262
    124 C44       -10.8540    0.2930   -1.7780 ca        1 MOL     -0.132436
    125 H51        -4.4930    2.0320    0.1970 hn        1 MOL      0.247879
    126 H52        -5.6640    0.2440   -1.5720 h1        1 MOL      0.080324
    127 H53        -6.6590    2.6260   -0.8860 hc        1 MOL      0.077059
    128 H54        -7.0040    2.0740    0.6190 hc        1 MOL      0.077059
    129 H55        -7.8350    1.5380   -2.9020 ha        1 MOL      0.101969
    130 H56        -9.0320    0.8230    1.1320 ha        1 MOL      0.101969
    131 H57       -10.0360    0.6850   -3.6890 ha        1 MOL      0.112360
    132 H58       -11.3120   -0.0460    0.3270 ha        1 MOL      0.112360
    133 H59       -11.8140   -0.0030   -2.1510 ha        1 MOL      0.118768
    134 N12        -6.5840   -1.7530   -0.3390 n         1 MOL      0.057922
    135 C45        -6.9750   -2.9140    0.3530 c3        1 MOL     -0.009273
    136 C46        -6.0550   -3.5470    1.4310 c         1 MOL      0.203183
    137 O20        -6.5790   -4.1500    2.3490 o         1 MOL     -0.448056
    138 C47        -7.1020   -3.9790   -0.7830 c3        1 MOL      0.322399
    139 C48        -7.4190   -3.2020   -2.0030 c3        1 MOL     -0.138278
    140 C49        -6.7890   -1.8730   -1.7870 c3        1 MOL     -0.037943
    141 H60        -7.9730   -2.7950    0.7700 h1        1 MOL      0.059007
    142 H61        -6.1090   -4.4190   -0.8880 hc        1 MOL     -0.095339
    143 H62        -7.8780   -4.7160   -0.5640 hc        1 MOL     -0.095339
    144 H63        -7.1310   -3.7650   -2.8960 hc        1 MOL      0.047240
    145 H64        -8.4970   -3.0480   -2.0180 hc        1 MOL      0.047240
    146 H65        -5.8230   -1.7840   -2.2660 h1        1 MOL     -0.000889
    147 H66        -7.4710   -1.1460   -2.2360 h1        1 MOL     -0.000889
    148 N13        -4.7030   -3.2370    1.3930 n         1 MOL     -0.007699
    149 C50        -3.7730   -3.6290    2.5100 c3        1 MOL     -0.282886
    150 C51        -3.7500   -2.7050    3.6700 c         1 MOL      0.486676
    151 O21        -3.8220   -3.1520    4.8390 o         1 MOL     -0.527704
    152 C52        -2.3660   -3.9990    2.0140 c3        1 MOL     -0.092924
    153 C53        -2.2420   -5.2840    1.1890 c3        1 MOL     -0.165358
    154 C54        -0.8780   -5.4670    0.5950 c         1 MOL      0.739570
    155 O22         0.0370   -5.8650    1.2490 o         1 MOL     -0.719025
    156 O23        -0.5900   -5.1520   -0.5410 o         1 MOL     -0.719025
    157 H67        -4.3130   -2.7760    0.5840 hn        1 MOL      0.287991
    158 H68        -4.1500   -4.5690    2.9340 h1        1 MOL      0.150584
    159 H69        -1.8000   -4.2860    2.8950 hc        1 MOL      0.096896
    160 H70        -1.8740   -3.2190    1.4270 hc        1 MOL      0.096896
    161 H71        -2.9610   -5.2320    0.3660 hc        1 MOL      0.000368
    162 H72        -2.4180   -6.1630    1.8140 hc        1 MOL      0.000368
    163 N14        -3.9050   -1.4090    3.3570 n         1 MOL     -0.249633
    164 C55        -4.0910   -0.3930    4.4850 c3        1 MOL     -0.236159
    165 H73        -4.9880    0.1980    4.2970 h1        1 MOL      0.106874
    166 H74        -4.1960   -0.9200    5.4340 h1        1 MOL      0.106874
    167 H75        -3.2240    0.2660    4.5280 h1        1 MOL      0.106874
    168 H76        -3.9870   -1.1420    2.3960 hn        1 MOL      0.255776
    169 Ca1        -0.3990   -3.2850   -2.2310 Ca        1 MOL      1.680351
    170 O24        -1.7170   -2.4710   -4.5990 oh        1 MOL     -0.794640
    171 H77        -1.5770   -1.5280   -4.7360 ho        1 MOL      0.391408
    172 H78        -2.2110   -2.7530   -5.3670 ho        1 MOL      0.391408
    173 O25         0.9280   -1.7360   -4.0670 oh        1 MOL     -0.794640
    174 H79         0.7970   -1.4020   -4.9500 ho        1 MOL      0.391408
    175 H80         1.4010   -1.0350   -3.6090 ho        1 MOL      0.391408
    176 O26        -1.1640   -5.2820   -3.9300 oh        1 MOL     -0.794640
    177 H81        -1.9960   -5.5180   -4.3510 ho        1 MOL      0.391408
    178 H82        -0.4980   -5.7160   -4.4610 ho        1 MOL      0.391408
    179 O27        -3.0810   -3.0770   -1.9750 oh        1 MOL     -0.794640
    180 H83        -3.2620   -2.1340   -2.0680 ho        1 MOL      0.391408
    181 H84        -3.9420   -3.4700   -1.7920 ho        1 MOL      0.391408
@<TRIPOS>BOND
     1    1    2 1   
     2    1    4 1   
     3    1    5 1   
     4    1    6 1   
     5    2    3 2   
     6    2    7 1   
     7    7    8 1   
     8    7   15 1   
     9    8    9 1   
    10    8   11 1   
    11    8   16 1   
    12    9   10 2   
    13    9   19 1   
    14   11   12 1   
    15   11   17 1   
    16   11   18 1   
    17   12   13 1   
    18   12   14 1   
    19   19   20 1   
    20   19   24 1   
    21   20   21 1   
    22   20   23 1   
    23   20   25 1   
    24   21   22 2   
    25   21   29 1   
    26   23   26 1   
    27   23   27 1   
    28   23   28 1   
    29   29   30 1   
    30   29   37 1   
    31   30   31 1   
    32   30   33 1   
    33   30   38 1   
    34   31   32 2   
    35   31   41 1   
    36   33   34 1   
    37   33   39 1   
    38   33   40 1   
    39   34   35 1   
    40   34   36 1   
    41   41   42 1   
    42   41   45 1   
    43   42   43 1   
    44   42   46 1   
    45   42   47 1   
    46   43   44 2   
    47   43   48 1   
    48   48   49 1   
    49   48   56 1   
    50   49   50 1   
    51   49   52 1   
    52   49   57 1   
    53   50   51 2   
    54   50   62 1   
    55   52   53 1   
    56   52   58 1   
    57   52   59 1   
    58   53   54 1   
    59   53   55 2   
    60   54   60 1   
    61   54   61 1   
    62   62   63 1   
    63   62   66 1   
    64   63   64 1   
    65   63   67 1   
    66   63   68 1   
    67   64   65 2   
    68   64   69 1   
    69   69   70 1   
    70   69   76 1   
    71   70   71 1   
    72   70   73 1   
    73   70   77 1   
    74   71   72 2   
    75   71   83 1   
    76   73   74 1   
    77   73   75 1   
    78   73   78 1   
    79   74   80 1   
    80   74   81 1   
    81   74   82 1   
    82   75   79 1   
    83   83   84 1   
    84   83   91 1   
    85   84   85 1   
    86   84   87 1   
    87   84   92 1   
    88   85   86 2   
    89   85  102 1   
    90   87   88 1   
    91   87   89 1   
    92   87   93 1   
    93   88   90 1   
    94   88   94 1   
    95   88   95 1   
    96   89   96 1   
    97   89   97 1   
    98   89   98 1   
    99   90   99 1   
   100   90  100 1   
   101   90  101 1   
   102  102  103 1   
   103  102  110 1   
   104  103  104 1   
   105  103  106 1   
   106  103  111 1   
   107  104  105 2   
   108  104  114 1   
   109  106  107 1   
   110  106  112 1   
   111  106  113 1   
   112  107  108 1   
   113  107  109 1   
   114  114  115 1   
   115  114  125 1   
   116  115  116 1   
   117  115  118 1   
   118  115  126 1   
   119  116  117 2   
   120  116  134 1   
   121  118  119 1   
   122  118  127 1   
   123  118  128 1   
   124  119  120 ar  
   125  119  121 ar  
   126  120  122 ar  
   127  120  129 1   
   128  121  123 ar  
   129  121  130 1   
   130  122  124 ar  
   131  122  131 1   
   132  123  124 ar  
   133  123  132 1   
   134  124  133 1   
   135  134  135 1   
   136  134  140 1   
   137  135  136 1   
   138  135  138 1   
   139  135  141 1   
   140  136  137 2   
   141  136  148 1   
   142  138  139 1   
   143  138  142 1   
   144  138  143 1   
   145  139  140 1   
   146  139  144 1   
   147  139  145 1   
   148  140  146 1   
   149  140  147 1   
   150  148  149 1   
   151  148  157 1   
   152  149  150 1   
   153  149  152 1   
   154  149  158 1   
   155  150  151 2   
   156  150  163 1   
   157  152  153 1   
   158  152  159 1   
   159  152  160 1   
   160  153  154 1   
   161  153  161 1   
   162  153  162 1   
   163  154  155 1   
   164  154  156 1   
   165  163  164 1   
   166  163  168 1   
   167  164  165 1   
   168  164  166 1   
   169  164  167 1   
   170  170  171 1   
   171  170  172 1   
   172  173  174 1   
   173  173  175 1   
   174  176  177 1   
   175  176  178 1   
   176  179  180 1   
   177  179  181 1   
@<TRIPOS>SUBSTRUCTURE
     1 MOL         1 TEMP              0 ****  ****    0 ROOT
