@<TRIPOS>MOLECULE
MOL
  195   189     1     0     0
SMALL
resp


@<TRIPOS>ATOM
      1 C1          3.4310   -4.0450   -3.6080 c3        1 MOL     -0.458943
      2 C2          2.4290   -3.7430   -2.4400 c         1 MOL      0.717291
      3 O1          1.6730   -2.7410   -2.4770 o         1 MOL     -0.545556
      4 H1          4.2760   -3.3600   -3.5470 hc        1 MOL      0.114122
      5 H2          3.7890   -5.0720   -3.5250 hc        1 MOL      0.114122
      6 H3          2.9250   -3.9120   -4.5640 hc        1 MOL      0.114122
      7 N1          2.4600   -4.4050   -1.2630 n         1 MOL     -0.289545
      8 C3          1.7780   -3.9170   -0.1070 c3        1 MOL     -0.214368
      9 C4          0.2400   -4.0100   -0.2160 c         1 MOL      0.708569
     10 O2         -0.4590   -3.3330    0.5770 o         1 MOL     -0.612479
     11 C5          2.4410   -2.6250    0.5390 c3        1 MOL     -0.070368
     12 C6          3.9450   -2.9100    0.5370 c         1 MOL      0.695396
     13 O3          4.7520   -2.2830   -0.1740 o         1 MOL     -0.781695
     14 O4          4.3660   -3.7920    1.3200 o         1 MOL     -0.781695
     15 H4          3.1670   -5.1100   -1.1070 hn        1 MOL      0.187794
     16 H5          2.0000   -4.7210    0.6060 h1        1 MOL      0.113187
     17 H6          2.0850   -2.4670    1.5580 hc        1 MOL      0.092544
     18 H7          2.1970   -1.7060    0.0020 hc        1 MOL      0.092544
     19 N2         -0.3050   -4.9260   -1.0250 n         1 MOL     -0.497735
     20 C7         -1.7640   -5.1000   -1.3040 c3        1 MOL     -0.042056
     21 C8         -2.5100   -5.8880   -0.1820 c         1 MOL      0.516965
     22 O5         -2.0960   -6.8210    0.4160 o         1 MOL     -0.575411
     23 C9         -1.9870   -5.5840   -2.7540 c3        1 MOL      0.250427
     24 C10        -1.3990   -6.9640   -3.0280 c3        1 MOL      0.178080
     25 C11        -1.6290   -4.4780   -3.7900 c3        1 MOL     -0.041193
     26 C12        -2.2580   -7.5760   -4.1530 c3        1 MOL     -0.175174
     27 H8          0.3320   -5.3770   -1.6740 hn        1 MOL      0.171603
     28 H9         -1.9710   -4.0330   -1.2100 h1        1 MOL      0.079171
     29 H10        -3.0750   -5.6530   -2.7810 hc        1 MOL     -0.034041
     30 H11        -1.4590   -7.5080   -2.0940 hc        1 MOL     -0.063878
     31 H12        -0.3530   -6.8280   -3.3130 hc        1 MOL     -0.063878
     32 H13        -2.2660   -3.5940   -3.6970 hc        1 MOL     -0.013841
     33 H14        -0.6070   -4.1380   -3.6630 hc        1 MOL     -0.013841
     34 H15        -1.8210   -4.9710   -4.7440 hc        1 MOL     -0.013841
     35 H16        -2.1030   -7.0650   -5.1060 hc        1 MOL      0.025546
     36 H17        -1.9350   -8.6040   -4.3690 hc        1 MOL      0.025546
     37 H18        -3.3130   -7.5840   -3.8940 hc        1 MOL      0.025546
     38 N3         -3.6810   -5.5280    0.2050 n         1 MOL     -0.309640
     39 C13        -4.5690   -4.4130   -0.1760 c3        1 MOL      0.007078
     40 C14        -4.3040   -3.2720    0.8240 c         1 MOL      0.706791
     41 O6         -4.3640   -2.0300    0.4200 o         1 MOL     -0.662159
     42 C15        -5.9950   -4.9590   -0.1640 c3        1 MOL     -0.127169
     43 C16        -6.6240   -5.1750    1.2600 c         1 MOL      0.632867
     44 O7         -7.7470   -4.6690    1.4490 o         1 MOL     -0.678962
     45 O8         -5.9330   -5.7600    2.1490 o         1 MOL     -0.678962
     46 H19        -4.0430   -6.0730    0.9820 hn        1 MOL      0.180696
     47 H20        -4.3010   -3.9800   -1.1340 h1        1 MOL      0.014132
     48 H21        -6.0080   -5.8980   -0.7090 hc        1 MOL      0.015435
     49 H22        -6.6430   -4.2700   -0.7090 hc        1 MOL      0.015435
     50 N4         -3.8490   -3.6410    2.0490 n         1 MOL     -0.333119
     51 C17        -3.5260   -2.6610    3.1390 c3        1 MOL     -0.171687
     52 C18        -4.8030   -1.9130    3.5080 c         1 MOL      0.462986
     53 O9         -5.8760   -2.4830    3.5820 o         1 MOL     -0.472084
     54 H23        -3.8690   -4.6260    2.2900 hn        1 MOL      0.302452
     55 H24        -2.7930   -1.8990    2.8710 h1        1 MOL      0.111523
     56 H25        -3.1080   -3.1320    4.0280 h1        1 MOL      0.111523
     57 N5         -4.6950   -0.5500    3.6380 n         1 MOL     -0.379789
     58 C19        -5.7270    0.3960    4.0470 c3        1 MOL     -0.001046
     59 C20        -6.8630    0.4970    2.9850 c         1 MOL      0.403802
     60 O10        -7.9210    1.1020    3.1770 o         1 MOL     -0.553384
     61 C21        -5.0250    1.6890    4.4450 c3        1 MOL     -0.349013
     62 C22        -4.1820    2.2160    3.3000 c         1 MOL      0.825829
     63 O11        -4.6470    2.4680    2.1400 o         1 MOL     -0.713349
     64 O12        -2.9710    2.3650    3.5210 o         1 MOL     -0.713349
     65 H26        -3.7460   -0.2220    3.5290 hn        1 MOL      0.250811
     66 H27        -6.0770   -0.0270    4.9930 h1        1 MOL      0.095850
     67 H28        -4.3300    1.4330    5.2370 hc        1 MOL      0.078268
     68 H29        -5.7520    2.4510    4.7510 hc        1 MOL      0.078268
     69 N6         -6.7180   -0.1830    1.8600 n         1 MOL     -0.134274
     70 C23        -7.6910   -0.2140    0.7680 c3        1 MOL     -0.023935
     71 C24        -7.6100    0.9570   -0.2340 c         1 MOL      0.489230
     72 O13        -8.1630    0.9270   -1.2780 o         1 MOL     -0.574197
     73 H30        -5.9900   -0.8770    1.9230 hn        1 MOL      0.201617
     74 H31        -8.6810   -0.1670    1.2150 h1        1 MOL      0.069657
     75 H32        -7.6660   -1.1230    0.1630 h1        1 MOL      0.069657
     76 N7         -6.9950    2.0620    0.2150 n         1 MOL     -0.059041
     77 C25        -6.8270    3.3990   -0.4490 c3        1 MOL     -0.046006
     78 C26        -6.2440    3.4080   -1.8680 c         1 MOL      0.551240
     79 O14        -6.6890    4.2120   -2.7120 o         1 MOL     -0.548689
     80 C27        -8.1400    4.2450   -0.1960 c3        1 MOL      0.024058
     81 C28        -8.3440    4.4740    1.3200 c3        1 MOL     -0.161271
     82 C29        -7.2090    5.1680    2.0890 c         1 MOL      0.527095
     83 N8         -7.0230    4.7410    3.2750 n         1 MOL     -0.635754
     84 O15        -6.5750    6.0880    1.5860 o         1 MOL     -0.529562
     85 H33        -6.6640    2.0790    1.1720 hn        1 MOL     -0.033580
     86 H34        -6.1260    3.9680    0.1600 h1        1 MOL      0.179926
     87 H35        -8.9910    3.7200   -0.6400 hc        1 MOL      0.011612
     88 H36        -7.9280    5.2280   -0.6000 hc        1 MOL      0.011612
     89 H37        -8.6090    3.5320    1.8010 hc        1 MOL      0.039436
     90 H38        -9.2370    5.0910    1.4110 hc        1 MOL      0.039436
     91 H39        -7.4930    3.9330    3.6550 hn        1 MOL      0.316902
     92 H40        -6.5620    5.3370    3.9540 hn        1 MOL      0.316902
     93 N9         -5.2850    2.5560   -2.1720 n         1 MOL     -0.550747
     94 C30        -4.5260    2.5480   -3.4220 c3        1 MOL      0.222431
     95 C31        -3.0110    2.5190   -3.2610 c         1 MOL      0.592409
     96 O16        -2.2810    3.1710   -4.0360 o         1 MOL     -0.563934
     97 C32        -4.9960    1.3760   -4.3200 c3        1 MOL      0.242941
     98 C33        -6.5820    1.4270   -4.4370 c3        1 MOL     -0.305231
     99 C34        -4.4180    1.4700   -5.7220 c3        1 MOL     -0.305231
    100 H41        -5.1980    1.7450   -1.5720 hn        1 MOL      0.225829
    101 H42        -4.7060    3.4430   -4.0100 h1        1 MOL      0.043484
    102 H43        -4.7210    0.3980   -3.9440 hc        1 MOL     -0.042356
    103 H44        -6.8560    2.4790   -4.4730 hc        1 MOL      0.061843
    104 H45        -7.0230    0.8740   -5.2650 hc        1 MOL      0.061843
    105 H46        -6.9480    0.9220   -3.5310 hc        1 MOL      0.061843
    106 H47        -4.7670    2.4270   -6.1200 hc        1 MOL      0.061843
    107 H48        -3.3270    1.4660   -5.7700 hc        1 MOL      0.061843
    108 H49        -4.7590    0.7010   -6.4210 hc        1 MOL      0.061843
    109 N10        -2.5480    1.8470   -2.1990 n         1 MOL     -0.586848
    110 C35        -1.2410    1.3090   -1.9950 c3        1 MOL      0.300202
    111 C36        -0.2510    2.0170   -0.9850 c         1 MOL      0.599929
    112 O17        -0.8050    2.6550   -0.0590 o         1 MOL     -0.513103
    113 C37        -1.3230   -0.2230   -1.7070 c3        1 MOL     -0.359361
    114 C38        -2.2160   -0.9410   -2.7330 c         1 MOL      0.778920
    115 N11        -3.4300   -1.2970   -2.4090 n         1 MOL     -0.713206
    116 O18        -1.8600   -0.9380   -3.9110 o         1 MOL     -0.621677
    117 H50        -3.2400    1.4480   -1.5940 hn        1 MOL      0.304510
    118 H51        -0.7340    1.3380   -2.9700 h1        1 MOL      0.006382
    119 H52        -1.7380   -0.3390   -0.7010 hc        1 MOL      0.103659
    120 H53        -0.3090   -0.6120   -1.7820 hc        1 MOL      0.103659
    121 H54        -3.7490   -1.0420   -1.4890 hn        1 MOL      0.342353
    122 H55        -4.0330   -1.3760   -3.2200 hn        1 MOL      0.342353
    123 N12         1.0790    1.8350   -1.1330 n         1 MOL     -0.733768
    124 C39         1.9880    2.3570   -0.0640 c3        1 MOL      0.601530
    125 C40         3.2400    3.0590   -0.6210 c         1 MOL      0.285887
    126 O19         3.5680    2.7810   -1.7670 o         1 MOL     -0.505883
    127 C41         2.4120    1.2380    0.8610 c3        1 MOL     -0.303710
    128 C42         2.9130    1.6580    2.2190 ca        1 MOL      0.030391
    129 C43         4.2830    1.4950    2.5360 ca        1 MOL     -0.150699
    130 C44         2.0620    2.3910    3.0600 ca        1 MOL     -0.150699
    131 C45         4.8110    1.9970    3.7110 ca        1 MOL     -0.251113
    132 C46         2.6020    2.9330    4.2810 ca        1 MOL     -0.251113
    133 C47         3.9650    2.7030    4.6420 ca        1 MOL      0.303781
    134 O20         4.3580    3.0980    5.8700 oh        1 MOL     -0.505416
    135 H56         1.4410    1.2260   -1.8500 hn        1 MOL      0.347965
    136 H57         1.4270    3.0430    0.5840 h1        1 MOL     -0.047789
    137 H58         3.0630    0.4980    0.4050 hc        1 MOL      0.071139
    138 H59         1.4300    0.8000    1.0430 hc        1 MOL      0.071139
    139 H60         4.9380    1.0650    1.7920 ha        1 MOL      0.211593
    140 H61         1.0160    2.5620    2.8510 ha        1 MOL      0.211593
    141 H62         5.8290    1.8180    4.0490 ha        1 MOL      0.133956
    142 H63         1.8870    3.3420    4.9750 ha        1 MOL      0.133956
    143 H64         5.2800    3.3400    5.9850 ho        1 MOL      0.367494
    144 N13         3.7990    3.9800    0.1310 n         1 MOL     -0.429501
    145 C48         4.9000    4.8930   -0.3780 c3        1 MOL      0.059227
    146 C49         6.2050    4.6930    0.5350 c         1 MOL      0.520190
    147 O21         6.4410    5.4340    1.4830 o         1 MOL     -0.563294
    148 C50         4.4790    6.3590   -0.4730 c3        1 MOL      0.106469
    149 C51         3.2560    6.6350   -1.3500 c3        1 MOL     -0.163164
    150 C52         3.0970    8.0550   -1.7980 c         1 MOL      0.643619
    151 O22         1.9840    8.6690   -1.5310 o         1 MOL     -0.663449
    152 O23         4.0340    8.6790   -2.3870 o         1 MOL     -0.663449
    153 H65         3.3410    4.1850    1.0020 hn        1 MOL      0.300905
    154 H66         5.1540    4.5480   -1.3750 h1        1 MOL      0.116886
    155 H67         5.2700    6.9730   -0.9100 hc        1 MOL     -0.009543
    156 H68         4.3040    6.8010    0.4990 hc        1 MOL     -0.009543
    157 H69         2.3330    6.4210   -0.8120 hc        1 MOL      0.034771
    158 H70         3.4110    6.0240   -2.2410 hc        1 MOL      0.034771
    159 N14         6.9740    3.5830    0.4590 n         1 MOL     -0.382667
    160 C53         6.9960    2.3910   -0.4340 c3        1 MOL     -0.432601
    161 C54         7.2530    2.6810   -1.8940 c         1 MOL      0.662273
    162 O24         8.1150    3.4550   -2.2730 o         1 MOL     -0.532914
    163 C55         8.1040    1.4710    0.1510 c3        1 MOL     -0.009538
    164 C56         8.2490    0.1800   -0.5640 c3        1 MOL     -0.268794
    165 C57         9.1130   -0.7400    0.3170 c         1 MOL      0.698235
    166 O25         8.6460   -1.5580    1.1630 o         1 MOL     -0.698185
    167 O26        10.3370   -0.5950    0.1600 o         1 MOL     -0.698185
    168 H71         7.5960    3.6120    1.2560 hn        1 MOL      0.281541
    169 H72         6.0810    1.8000   -0.3990 h1        1 MOL      0.149393
    170 H73         7.9520    1.2250    1.2020 hc        1 MOL      0.076971
    171 H74         9.0530    1.9860    0.0430 hc        1 MOL      0.076971
    172 H75         8.6810    0.2190   -1.5580 hc        1 MOL      0.069015
    173 H76         7.2690   -0.2820   -0.6730 hc        1 MOL      0.069015
    174 N15         6.4150    2.0940   -2.8210 n         1 MOL     -0.294285
    175 C58         6.3870    2.0780   -4.2870 c3        1 MOL     -0.169337
    176 H77         7.3050    1.6250   -4.6630 h1        1 MOL      0.085208
    177 H78         5.5300    1.4980   -4.6280 h1        1 MOL      0.085208
    178 H79         6.3080    3.0990   -4.6600 h1        1 MOL      0.085208
    179 H80         5.6390    1.5410   -2.4780 hn        1 MOL      0.272077
    180 Ca1         6.9400   -3.4830    1.1390 Ca        1 MOL      1.697318
    181 O27         9.1390   -4.7520    0.1090 oh        1 MOL     -0.821055
    182 H81         8.9960   -5.6460   -0.2190 ho        1 MOL      0.389465
    183 H82        10.0280   -4.5360   -0.1590 ho        1 MOL      0.389465
    184 O28         6.0220   -1.7170    3.0580 oh        1 MOL     -0.821055
    185 H83         6.7620   -1.5290    3.6310 ho        1 MOL      0.389465
    186 H84         5.3140   -1.9540    3.6600 ho        1 MOL      0.389465
    187 O29         6.5370   -5.5550    2.8840 oh        1 MOL     -0.821055
    188 H85         5.6020   -5.7200    2.8790 ho        1 MOL      0.389465
    189 H86         6.9080   -6.2710    3.3980 ho        1 MOL      0.389465
    190 O30         8.8050   -3.8680    3.0990 oh        1 MOL     -0.821055
    191 H87         8.7240   -3.6990    4.0430 ho        1 MOL      0.389465
    192 H88         9.4820   -3.2700    2.8010 ho        1 MOL      0.389465
    193 O31         7.4920   -2.9040   -1.3790 oh        1 MOL     -0.821055
    194 H89         7.2500   -2.0120   -1.6260 ho        1 MOL      0.389465
    195 H90         8.2960   -3.0850   -1.8730 ho        1 MOL      0.389465
@<TRIPOS>BOND
     1    1    2 1   
     2    1    4 1   
     3    1    5 1   
     4    1    6 1   
     5    2    3 2   
     6    2    7 1   
     7    7    8 1   
     8    7   15 1   
     9    8    9 1   
    10    8   11 1   
    11    8   16 1   
    12    9   10 2   
    13    9   19 1   
    14   11   12 1   
    15   11   17 1   
    16   11   18 1   
    17   12   13 1   
    18   12   14 1   
    19   19   20 1   
    20   19   27 1   
    21   20   21 1   
    22   20   23 1   
    23   20   28 1   
    24   21   22 2   
    25   21   38 1   
    26   23   24 1   
    27   23   25 1   
    28   23   29 1   
    29   24   26 1   
    30   24   30 1   
    31   24   31 1   
    32   25   32 1   
    33   25   33 1   
    34   25   34 1   
    35   26   35 1   
    36   26   36 1   
    37   26   37 1   
    38   38   39 1   
    39   38   46 1   
    40   39   40 1   
    41   39   42 1   
    42   39   47 1   
    43   40   41 2   
    44   40   50 1   
    45   42   43 1   
    46   42   48 1   
    47   42   49 1   
    48   43   44 1   
    49   43   45 1   
    50   50   51 1   
    51   50   54 1   
    52   51   52 1   
    53   51   55 1   
    54   51   56 1   
    55   52   53 2   
    56   52   57 1   
    57   57   58 1   
    58   57   65 1   
    59   58   59 1   
    60   58   61 1   
    61   58   66 1   
    62   59   60 2   
    63   59   69 1   
    64   61   62 1   
    65   61   67 1   
    66   61   68 1   
    67   62   63 1   
    68   62   64 1   
    69   69   70 1   
    70   69   73 1   
    71   70   71 1   
    72   70   74 1   
    73   70   75 1   
    74   71   72 2   
    75   71   76 1   
    76   76   77 1   
    77   76   85 1   
    78   77   78 1   
    79   77   80 1   
    80   77   86 1   
    81   78   79 2   
    82   78   93 1   
    83   80   81 1   
    84   80   87 1   
    85   80   88 1   
    86   81   82 1   
    87   81   89 1   
    88   81   90 1   
    89   82   83 1   
    90   82   84 2   
    91   83   91 1   
    92   83   92 1   
    93   93   94 1   
    94   93  100 1   
    95   94   95 1   
    96   94   97 1   
    97   94  101 1   
    98   95   96 2   
    99   95  109 1   
   100   97   98 1   
   101   97   99 1   
   102   97  102 1   
   103   98  103 1   
   104   98  104 1   
   105   98  105 1   
   106   99  106 1   
   107   99  107 1   
   108   99  108 1   
   109  109  110 1   
   110  109  117 1   
   111  110  111 1   
   112  110  113 1   
   113  110  118 1   
   114  111  112 2   
   115  111  123 1   
   116  113  114 1   
   117  113  119 1   
   118  113  120 1   
   119  114  115 1   
   120  114  116 2   
   121  115  121 1   
   122  115  122 1   
   123  123  124 1   
   124  123  135 1   
   125  124  125 1   
   126  124  127 1   
   127  124  136 1   
   128  125  126 2   
   129  125  144 1   
   130  127  128 1   
   131  127  137 1   
   132  127  138 1   
   133  128  129 ar  
   134  128  130 ar  
   135  129  131 ar  
   136  129  139 1   
   137  130  132 ar  
   138  130  140 1   
   139  131  133 ar  
   140  131  141 1   
   141  132  133 ar  
   142  132  142 1   
   143  133  134 1   
   144  134  143 1   
   145  144  145 1   
   146  144  153 1   
   147  145  146 1   
   148  145  148 1   
   149  145  154 1   
   150  146  147 2   
   151  146  159 1   
   152  148  149 1   
   153  148  155 1   
   154  148  156 1   
   155  149  150 1   
   156  149  157 1   
   157  149  158 1   
   158  150  151 1   
   159  150  152 1   
   160  159  160 1   
   161  159  168 1   
   162  160  161 1   
   163  160  163 1   
   164  160  169 1   
   165  161  162 2   
   166  161  174 1   
   167  163  164 1   
   168  163  170 1   
   169  163  171 1   
   170  164  165 1   
   171  164  172 1   
   172  164  173 1   
   173  165  166 1   
   174  165  167 1   
   175  174  175 1   
   176  174  179 1   
   177  175  176 1   
   178  175  177 1   
   179  175  178 1   
   180  181  182 1   
   181  181  183 1   
   182  184  185 1   
   183  184  186 1   
   184  187  188 1   
   185  187  189 1   
   186  190  191 1   
   187  190  192 1   
   188  193  194 1   
   189  193  195 1   
@<TRIPOS>SUBSTRUCTURE
     1 MOL         1 TEMP              0 ****  ****    0 ROOT
