@<TRIPOS>MOLECULE
MOL
  195   189     1     0     0
SMALL
resp


@<TRIPOS>ATOM
      1 C1          3.7100   -7.1600   -0.4530 c3        1 MOL     -0.299895
      2 C2          3.6490   -5.6610   -0.2230 c         1 MOL      0.568541
      3 O1          3.3030   -5.1270    0.8850 o         1 MOL     -0.554126
      4 H1          4.7160   -7.5200   -0.2360 hc        1 MOL      0.085958
      5 H2          2.9980   -7.6580    0.2040 hc        1 MOL      0.085958
      6 H3          3.4630   -7.3790   -1.4910 hc        1 MOL      0.085958
      7 N1          4.0350   -4.8130   -1.2240 n         1 MOL     -0.279474
      8 C3          3.9980   -3.3560   -1.1190 c3        1 MOL     -0.177680
      9 C4          2.5310   -2.8110   -1.1270 c         1 MOL      0.680411
     10 O2          2.3020   -1.6650   -0.6460 o         1 MOL     -0.499239
     11 C5          4.8660   -2.6350   -2.1660 c3        1 MOL     -0.092747
     12 C6          4.7990   -3.2490   -3.5320 c         1 MOL      0.634999
     13 O3          4.2290   -2.5560   -4.4350 o         1 MOL     -0.704921
     14 O4          5.4000   -4.3370   -3.7660 o         1 MOL     -0.704921
     15 H4          4.4560   -5.2440   -2.0420 hn        1 MOL      0.230325
     16 H5          4.4260   -3.0580   -0.1630 h1        1 MOL      0.097344
     17 H6          5.9040   -2.5380   -1.8510 hc        1 MOL      0.017856
     18 H7          4.4940   -1.6080   -2.1880 hc        1 MOL      0.017856
     19 N2          1.5940   -3.5170   -1.7440 n         1 MOL     -0.667096
     20 C7          0.1730   -3.1170   -1.6760 c3        1 MOL      0.157005
     21 C8         -0.3320   -3.4130   -0.2580 c         1 MOL      0.664872
     22 O5         -0.1140   -4.4930    0.2940 o         1 MOL     -0.595558
     23 C9         -0.6920   -3.8200   -2.7920 c3        1 MOL     -0.170740
     24 C10        -0.0730   -3.6980   -4.1480 c3        1 MOL      0.016442
     25 C11        -1.0600   -3.7590   -5.3420 c3        1 MOL      0.054610
     26 C12        -0.3170   -3.5600   -6.7080 c3        1 MOL     -0.104510
     27 N3          0.1800   -2.1900   -6.9390 n4        1 MOL     -0.272311
     28 H8          1.7780   -4.4540   -2.0790 hn        1 MOL      0.313125
     29 H9          0.1090   -2.0800   -2.0210 h1        1 MOL      0.169651
     30 H10        -1.6930   -3.3800   -2.8110 hc        1 MOL      0.082154
     31 H11        -0.8640   -4.8710   -2.5780 hc        1 MOL      0.082154
     32 H12         0.6220   -4.5150   -4.3490 hc        1 MOL      0.021634
     33 H13         0.3720   -2.6990   -4.2340 hc        1 MOL      0.021634
     34 H14        -1.8720   -3.0500   -5.1950 hc        1 MOL      0.028169
     35 H15        -1.5560   -4.7260   -5.3280 hc        1 MOL      0.028169
     36 H16        -1.0110   -3.8650   -7.4900 hx        1 MOL      0.109559
     37 H17         0.4980   -4.2730   -6.7700 hx        1 MOL      0.109559
     38 H18        -0.4260   -1.4210   -6.7160 hn        1 MOL      0.317001
     39 H19         0.9890   -2.0540   -6.3400 hn        1 MOL      0.317001
     40 H20         0.5530   -2.0890   -7.8750 hn        1 MOL      0.317001
     41 N4         -1.2080   -2.6520    0.2970 n         1 MOL     -0.597065
     42 C13        -1.7300   -1.3460   -0.0820 c3        1 MOL     -0.075634
     43 C14        -2.4660   -1.2570   -1.4630 c         1 MOL      0.243031
     44 O6         -2.0260   -0.5740   -2.3830 o         1 MOL     -0.519400
     45 C15        -0.7690   -0.1080    0.2340 c3        1 MOL     -0.206187
     46 C16        -0.2620   -0.0060    1.6920 c         1 MOL      1.025491
     47 O7         -0.9670   -0.5500    2.5890 o         1 MOL     -0.885135
     48 O8          0.7530    0.6560    2.0240 o         1 MOL     -0.885135
     49 H21        -1.5050   -2.8570    1.2420 hn        1 MOL      0.345919
     50 H22        -2.5050   -1.1200    0.6530 h1        1 MOL      0.153145
     51 H23        -1.1810    0.8130   -0.1820 hc        1 MOL      0.110374
     52 H24         0.1780   -0.2390   -0.2870 hc        1 MOL      0.110374
     53 N5         -3.4880   -1.9510   -1.6690 n         1 MOL     -0.195274
     54 C17        -4.3560   -2.6140   -0.6720 c3        1 MOL     -0.154158
     55 C18        -5.7190   -3.0600   -1.2150 c         1 MOL      0.578094
     56 O9         -5.8140   -3.3340   -2.4160 o         1 MOL     -0.578356
     57 H25        -3.7910   -2.1440   -2.6120 hn        1 MOL      0.275999
     58 H26        -4.5260   -1.9770    0.1930 h1        1 MOL      0.088300
     59 H27        -3.9620   -3.5190   -0.2070 h1        1 MOL      0.088300
     60 N6         -6.7800   -3.2120   -0.4160 n         1 MOL     -0.479134
     61 C19        -6.7470   -3.0250    1.0900 c3        1 MOL      0.014365
     62 C20        -7.2370   -1.6450    1.5490 c         1 MOL      0.583555
     63 O10        -7.6820   -0.9050    0.7090 o         1 MOL     -0.478131
     64 C21        -7.5610   -4.1700    1.7150 c3        1 MOL     -0.162739
     65 C22        -9.0130   -4.3360    1.4010 c         1 MOL      0.742900
     66 O11        -9.4930   -5.3780    0.8390 o         1 MOL     -0.670225
     67 O12        -9.7780   -3.4440    1.7920 o         1 MOL     -0.670225
     68 H28        -7.6060   -3.6110   -0.8550 hn        1 MOL      0.341876
     69 H29        -5.7350   -3.2740    1.4360 h1        1 MOL      0.041971
     70 H30        -7.4460   -4.0320    2.7910 hc        1 MOL      0.008611
     71 H31        -7.1530   -5.1700    1.5680 hc        1 MOL      0.008611
     72 N7         -7.1190   -1.3720    2.8130 n         1 MOL     -0.284409
     73 C23        -7.4850   -0.1170    3.5170 c3        1 MOL     -0.441664
     74 C24        -6.7650    1.1020    2.9780 c         1 MOL      0.618735
     75 O13        -7.2700    2.2080    3.0850 o         1 MOL     -0.564957
     76 H32        -6.6390   -2.0370    3.4050 hn        1 MOL      0.249278
     77 H33        -7.2210   -0.2010    4.5740 h1        1 MOL      0.201080
     78 H34        -8.5180    0.1930    3.3530 h1        1 MOL      0.201080
     79 N8         -5.6470    0.8840    2.3070 n         1 MOL     -0.413039
     80 C25        -4.8300    1.9630    1.5770 c3        1 MOL      0.018866
     81 C26        -4.7800    1.8190    0.0840 c         1 MOL      0.485911
     82 O14        -4.5910    0.7260   -0.4650 o         1 MOL     -0.456936
     83 C27        -3.3610    1.9670    2.0380 c3        1 MOL      0.466222
     84 C28        -3.2790    2.4080    3.4900 c3        1 MOL     -0.146381
     85 O15        -2.5170    2.7590    1.3360 oh        1 MOL     -0.639149
     86 H35        -5.3630   -0.0820    2.2820 hn        1 MOL      0.169082
     87 H36        -5.2170    2.9650    1.7640 h1        1 MOL      0.104362
     88 H37        -3.0220    0.9340    1.9780 h1        1 MOL     -0.029707
     89 H38        -1.6530    2.7160    1.7490 ho        1 MOL      0.372953
     90 H39        -3.5060    1.5580    4.1480 hc        1 MOL      0.022063
     91 H40        -2.2630    2.7290    3.7450 hc        1 MOL      0.022063
     92 H41        -4.0360    3.1620    3.7150 hc        1 MOL      0.022063
     93 N9         -4.8220    2.9670   -0.6570 n         1 MOL     -0.336617
     94 C29        -4.7360    3.1190   -2.1120 c3        1 MOL     -0.047918
     95 C30        -3.3580    3.5970   -2.5910 c         1 MOL      0.499471
     96 O16        -3.2330    3.9670   -3.8240 o         1 MOL     -0.586288
     97 C31        -5.8440    4.0360   -2.6810 c3        1 MOL      0.123020
     98 C32        -5.8970    5.4090   -2.0630 c3        1 MOL      0.403987
     99 C33        -7.2210    3.2870   -2.6410 c3        1 MOL     -0.229529
    100 C34        -6.5720    6.4170   -2.9470 c3        1 MOL     -0.341627
    101 H42        -4.9530    3.7750   -0.0720 hn        1 MOL      0.188416
    102 H43        -4.9670    2.1250   -2.5020 h1        1 MOL      0.119265
    103 H44        -5.6180    4.1120   -3.7390 hc        1 MOL      0.014257
    104 H45        -4.8480    5.6780   -1.9300 hc        1 MOL     -0.110065
    105 H46        -6.3980    5.3210   -1.1030 hc        1 MOL     -0.110065
    106 H47        -7.1550    2.3940   -3.2690 hc        1 MOL      0.055488
    107 H48        -7.4430    2.9290   -1.6380 hc        1 MOL      0.055488
    108 H49        -8.0220    3.9540   -2.9750 hc        1 MOL      0.055488
    109 H50        -7.5600    5.9970   -3.1170 hc        1 MOL      0.066299
    110 H51        -6.6280    7.3450   -2.3730 hc        1 MOL      0.066299
    111 H52        -6.0920    6.5010   -3.9250 hc        1 MOL      0.066299
    112 N10        -2.3620    3.6560   -1.7230 n         1 MOL     -0.271048
    113 C35        -1.0230    4.0270   -2.0180 c3        1 MOL     -0.108787
    114 C36        -0.0220    3.3450   -1.1300 c         1 MOL      0.559313
    115 O17        -0.2710    2.9780   -0.0290 o         1 MOL     -0.464740
    116 C37        -0.6870    5.5810   -1.9630 c3        1 MOL      0.377088
    117 C38        -1.4990    6.3340   -2.9990 c3        1 MOL     -0.222339
    118 O18         0.6700    5.8820   -2.2460 oh        1 MOL     -0.615173
    119 H53        -2.4790    3.2550   -0.8070 hn        1 MOL      0.187772
    120 H54        -0.8180    3.8520   -3.0770 h1        1 MOL      0.117682
    121 H55        -0.9200    6.0690   -1.0150 h1        1 MOL     -0.027102
    122 H56         0.7770    6.6530   -1.6810 ho        1 MOL      0.399279
    123 H57        -1.0700    7.3120   -3.2450 hc        1 MOL      0.055017
    124 H58        -1.4950    5.8830   -3.9890 hc        1 MOL      0.055017
    125 H59        -2.5190    6.5590   -2.6830 hc        1 MOL      0.055017
    126 N11         1.1730    3.1770   -1.6730 n         1 MOL     -0.500376
    127 C39         2.2650    2.3430   -1.1100 c3        1 MOL     -0.104058
    128 C40         3.5020    3.1110   -0.5910 c         1 MOL      0.596433
    129 O19         3.6010    4.3270   -0.8560 o         1 MOL     -0.572112
    130 C41         2.7810    1.3490   -2.1910 c3        1 MOL      0.562554
    131 C42         3.2770    2.0120   -3.4860 c3        1 MOL     -0.448214
    132 O20         1.8930    0.3510   -2.4420 oh        1 MOL     -0.680052
    133 H60         1.4600    3.5600   -2.5610 hn        1 MOL      0.306417
    134 H61         1.9060    1.7450   -0.2750 h1        1 MOL      0.137340
    135 H62         3.6120    0.8040   -1.7400 h1        1 MOL     -0.004106
    136 H63         1.9760   -0.3210   -1.7530 ho        1 MOL      0.335353
    137 H64         2.5530    2.5940   -4.0700 hc        1 MOL      0.099133
    138 H65         4.1260    2.6610   -3.3090 hc        1 MOL      0.099133
    139 H66         3.6880    1.1940   -4.0720 hc        1 MOL      0.099133
    140 N12         4.4000    2.4920    0.1230 n         1 MOL     -0.340557
    141 C43         5.5930    3.0970    0.7500 c3        1 MOL     -0.132337
    142 C44         6.1630    2.2160    1.9140 c         1 MOL      0.693836
    143 O21         7.0420    2.7150    2.6010 o         1 MOL     -0.551482
    144 C45         6.7310    3.3770   -0.2950 c3        1 MOL     -0.211538
    145 C46         7.0230    2.1040   -1.0950 c3        1 MOL     -0.015773
    146 C47         8.1390    2.3590   -2.1510 c3        1 MOL      0.161311
    147 C48         7.9620    1.4210   -3.3630 c3        1 MOL      0.020545
    148 N13         8.4470    2.0270   -4.6070 n4        1 MOL     -0.401382
    149 H67         4.1690    1.5150    0.2960 hn        1 MOL      0.153821
    150 H68         5.2410    4.0520    1.1510 h1        1 MOL      0.177287
    151 H69         7.6170    3.6960    0.2620 hc        1 MOL      0.091039
    152 H70         6.3640    4.1610   -0.9630 hc        1 MOL      0.091039
    153 H71         6.1350    1.6930   -1.5790 hc        1 MOL      0.002981
    154 H72         7.3750    1.2670   -0.4920 hc        1 MOL      0.002981
    155 H73         9.1580    2.4200   -1.7590 hc        1 MOL     -0.025102
    156 H74         7.9410    3.3560   -2.5710 hc        1 MOL     -0.025102
    157 H75         6.9230    1.1160   -3.4420 hx        1 MOL      0.090228
    158 H76         8.4470    0.4780   -3.1010 hx        1 MOL      0.090228
    159 H77         9.3460    2.4780   -4.4520 hn        1 MOL      0.299513
    160 H78         8.5600    1.3730   -5.3680 hn        1 MOL      0.299513
    161 H79         7.7490    2.7040   -4.8660 hn        1 MOL      0.299513
    162 N14         5.7250    0.9750    2.2570 n         1 MOL     -0.373858
    163 C49         6.3830    0.0310    3.1420 c3        1 MOL     -0.193148
    164 C50         6.8700   -1.1950    2.4110 c         1 MOL      0.416568
    165 O22         6.1690   -1.8540    1.6090 o         1 MOL     -0.451786
    166 C51         5.6210   -0.3030    4.4160 c3        1 MOL      0.279725
    167 C52         5.1990    0.8970    5.3310 c3        1 MOL     -0.062500
    168 C53         4.0930    1.7350    4.6510 c         1 MOL      0.444625
    169 O23         3.1050    1.1480    4.1340 o         1 MOL     -0.614714
    170 O24         4.1060    3.0100    4.7190 o         1 MOL     -0.614714
    171 H80         4.8820    0.5990    1.8530 hn        1 MOL      0.291485
    172 H81         7.2900    0.5240    3.4930 h1        1 MOL      0.107354
    173 H82         6.3040   -0.9210    5.0150 hc        1 MOL     -0.069356
    174 H83         4.7330   -0.8960    4.1810 hc        1 MOL     -0.069356
    175 H84         6.0920    1.5160    5.3890 hc        1 MOL      0.000810
    176 H85         4.8780    0.5690    6.3180 hc        1 MOL      0.000810
    177 N15         8.1120   -1.6520    2.7290 n         1 MOL     -0.261884
    178 C54         8.7030   -2.8260    2.0390 c3        1 MOL     -0.312945
    179 H86         9.7050   -3.0060    2.4260 h1        1 MOL      0.140832
    180 H87         8.0810   -3.7030    2.2170 h1        1 MOL      0.140832
    181 H88         8.7570   -2.6290    0.9690 h1        1 MOL      0.140832
    182 H89         8.5940   -1.0540    3.3830 hn        1 MOL      0.253182
    183 Ca1         0.8170   -0.1570    4.4970 Ca        1 MOL      1.776140
    184 O25         2.7860   -1.2300    6.0950 oh        1 MOL     -0.899865
    185 H90         2.6310   -0.6120    6.8070 ho        1 MOL      0.438920
    186 H91         3.5330   -1.7510    6.3850 ho        1 MOL      0.438920
    187 O26         0.1670    2.5610    4.8450 oh        1 MOL     -0.899865
    188 H92         0.3910    3.0220    4.0300 ho        1 MOL      0.438920
    189 H93         0.6060    3.0650    5.5320 ho        1 MOL      0.438920
    190 O27         1.5540   -2.2040    2.8640 oh        1 MOL     -0.899865
    191 H94         1.1260   -3.0510    2.9620 ho        1 MOL      0.438920
    192 H95         2.4960   -2.4010    2.8480 ho        1 MOL      0.438920
    193 O28        -1.9040   -0.2590    5.3010 oh        1 MOL     -0.899865
    194 H96        -2.6520    0.3290    5.1790 ho        1 MOL      0.438920
    195 H97        -2.3010   -1.1270    5.4360 ho        1 MOL      0.438920
@<TRIPOS>BOND
     1    1    2 1   
     2    1    4 1   
     3    1    5 1   
     4    1    6 1   
     5    2    3 2   
     6    2    7 1   
     7    7    8 1   
     8    7   15 1   
     9    8    9 1   
    10    8   11 1   
    11    8   16 1   
    12    9   10 2   
    13    9   19 1   
    14   11   12 1   
    15   11   17 1   
    16   11   18 1   
    17   12   13 1   
    18   12   14 1   
    19   19   20 1   
    20   19   28 1   
    21   20   21 1   
    22   20   23 1   
    23   20   29 1   
    24   21   22 2   
    25   21   41 1   
    26   23   24 1   
    27   23   30 1   
    28   23   31 1   
    29   24   25 1   
    30   24   32 1   
    31   24   33 1   
    32   25   26 1   
    33   25   34 1   
    34   25   35 1   
    35   26   27 1   
    36   26   36 1   
    37   26   37 1   
    38   27   38 1   
    39   27   39 1   
    40   27   40 1   
    41   41   42 1   
    42   41   49 1   
    43   42   43 1   
    44   42   45 1   
    45   42   50 1   
    46   43   44 2   
    47   43   53 1   
    48   45   46 1   
    49   45   51 1   
    50   45   52 1   
    51   46   47 1   
    52   46   48 1   
    53   53   54 1   
    54   53   57 1   
    55   54   55 1   
    56   54   58 1   
    57   54   59 1   
    58   55   56 2   
    59   55   60 1   
    60   60   61 1   
    61   60   68 1   
    62   61   62 1   
    63   61   64 1   
    64   61   69 1   
    65   62   63 2   
    66   62   72 1   
    67   64   65 1   
    68   64   70 1   
    69   64   71 1   
    70   65   66 1   
    71   65   67 1   
    72   72   73 1   
    73   72   76 1   
    74   73   74 1   
    75   73   77 1   
    76   73   78 1   
    77   74   75 2   
    78   74   79 1   
    79   79   80 1   
    80   79   86 1   
    81   80   81 1   
    82   80   83 1   
    83   80   87 1   
    84   81   82 2   
    85   81   93 1   
    86   83   84 1   
    87   83   85 1   
    88   83   88 1   
    89   84   90 1   
    90   84   91 1   
    91   84   92 1   
    92   85   89 1   
    93   93   94 1   
    94   93  101 1   
    95   94   95 1   
    96   94   97 1   
    97   94  102 1   
    98   95   96 2   
    99   95  112 1   
   100   97   98 1   
   101   97   99 1   
   102   97  103 1   
   103   98  100 1   
   104   98  104 1   
   105   98  105 1   
   106   99  106 1   
   107   99  107 1   
   108   99  108 1   
   109  100  109 1   
   110  100  110 1   
   111  100  111 1   
   112  112  113 1   
   113  112  119 1   
   114  113  114 1   
   115  113  116 1   
   116  113  120 1   
   117  114  115 2   
   118  114  126 1   
   119  116  117 1   
   120  116  118 1   
   121  116  121 1   
   122  117  123 1   
   123  117  124 1   
   124  117  125 1   
   125  118  122 1   
   126  126  127 1   
   127  126  133 1   
   128  127  128 1   
   129  127  130 1   
   130  127  134 1   
   131  128  129 2   
   132  128  140 1   
   133  130  131 1   
   134  130  132 1   
   135  130  135 1   
   136  131  137 1   
   137  131  138 1   
   138  131  139 1   
   139  132  136 1   
   140  140  141 1   
   141  140  149 1   
   142  141  142 1   
   143  141  144 1   
   144  141  150 1   
   145  142  143 2   
   146  142  162 1   
   147  144  145 1   
   148  144  151 1   
   149  144  152 1   
   150  145  146 1   
   151  145  153 1   
   152  145  154 1   
   153  146  147 1   
   154  146  155 1   
   155  146  156 1   
   156  147  148 1   
   157  147  157 1   
   158  147  158 1   
   159  148  159 1   
   160  148  160 1   
   161  148  161 1   
   162  162  163 1   
   163  162  171 1   
   164  163  164 1   
   165  163  166 1   
   166  163  172 1   
   167  164  165 2   
   168  164  177 1   
   169  166  167 1   
   170  166  173 1   
   171  166  174 1   
   172  167  168 1   
   173  167  175 1   
   174  167  176 1   
   175  168  169 1   
   176  168  170 1   
   177  177  178 1   
   178  177  182 1   
   179  178  179 1   
   180  178  180 1   
   181  178  181 1   
   182  184  185 1   
   183  184  186 1   
   184  187  188 1   
   185  187  189 1   
   186  190  191 1   
   187  190  192 1   
   188  193  194 1   
   189  193  195 1   
@<TRIPOS>SUBSTRUCTURE
     1 MOL         1 TEMP              0 ****  ****    0 ROOT
