@<TRIPOS>MOLECULE
MOL
  185   180     1     0     0
SMALL
resp


@<TRIPOS>ATOM
      1 C1          5.1960    2.0730    5.2430 c3        1 MOL     -0.397915
      2 C2          6.0930    1.4140    4.1720 c         1 MOL      0.645169
      3 O1          6.1180    0.2110    4.0420 o         1 MOL     -0.543345
      4 H1          5.1130    3.1410    5.0390 hc        1 MOL      0.109150
      5 H2          4.2050    1.6210    5.2160 hc        1 MOL      0.109150
      6 H3          5.6370    1.9250    6.2280 hc        1 MOL      0.109150
      7 N1          7.0010    2.2620    3.5600 n         1 MOL     -0.444689
      8 C3          8.1340    1.7460    2.7320 c3        1 MOL      0.011915
      9 C4          7.7020    0.8450    1.5990 c         1 MOL      0.347605
     10 O2          6.8360    1.2710    0.7660 o         1 MOL     -0.404363
     11 C5          9.0110    2.8420    2.2050 c3        1 MOL     -0.217642
     12 C6          8.4570    3.9060    1.2750 c         1 MOL      0.781580
     13 O3          8.7750    3.9440    0.0590 o         1 MOL     -0.689166
     14 O4          7.8070    4.8430    1.7110 o         1 MOL     -0.689166
     15 H4          6.9250    3.2620    3.7140 hn        1 MOL      0.281470
     16 H5          8.8160    1.1510    3.3320 h1        1 MOL      0.071038
     17 H6          9.9570    2.4780    1.7770 hc        1 MOL      0.057001
     18 H7          9.3190    3.4340    3.0700 hc        1 MOL      0.057001
     19 N2          8.3990   -0.3340    1.3630 n         1 MOL     -0.353580
     20 C7          8.1440   -1.2180    0.2400 c3        1 MOL      0.086205
     21 C8          6.8250   -1.9870    0.4160 c         1 MOL      0.519938
     22 O5          6.9050   -3.1710    0.6400 o         1 MOL     -0.558950
     23 C9          9.4150   -2.0190   -0.1350 c3        1 MOL      0.115672
     24 C10         9.3390   -2.4820   -1.6160 c3        1 MOL     -0.267277
     25 C11        10.4350   -3.4590   -2.0220 c3        1 MOL      0.103714
     26 C12        10.0930   -3.9970   -3.3830 c3        1 MOL      0.052689
     27 N3         10.8990   -5.2660   -3.7720 n4        1 MOL     -0.327630
     28 H8          9.1220   -0.5310    2.0440 hn        1 MOL      0.255263
     29 H9          7.9400   -0.5740   -0.6230 h1        1 MOL      0.033484
     30 H10         9.4580   -2.9110    0.4830 hc        1 MOL      0.004519
     31 H11        10.3200   -1.4740    0.1390 hc        1 MOL      0.004519
     32 H12         9.4670   -1.6030   -2.2420 hc        1 MOL      0.092036
     33 H13         8.3930   -2.9960   -1.8220 hc        1 MOL      0.092036
     34 H14        10.6320   -4.2930   -1.3420 hc        1 MOL      0.004474
     35 H15        11.4080   -2.9830   -2.1030 hc        1 MOL      0.004474
     36 H16        10.2470   -3.3050   -4.2060 hx        1 MOL      0.078868
     37 H17         9.0340   -4.2550   -3.3310 hx        1 MOL      0.078868
     38 H18        11.8620   -5.0330   -3.5760 hn        1 MOL      0.292826
     39 H19        10.5950   -6.0520   -3.2220 hn        1 MOL      0.292826
     40 H20        10.8090   -5.5670   -4.7280 hn        1 MOL      0.292826
     41 N4          5.6930   -1.2980    0.4130 n         1 MOL     -0.326924
     42 C13         4.2880   -1.8910    0.4650 c3        1 MOL     -0.031140
     43 C14         3.8000   -2.6100   -0.8270 c         1 MOL      0.452518
     44 O6          4.0650   -2.1730   -1.9590 o         1 MOL     -0.482922
     45 C15         3.3370   -0.6970    0.7350 c3        1 MOL     -0.001206
     46 C16         1.8560   -1.1310    0.6860 c         1 MOL      0.434951
     47 O7          1.1890   -1.0640   -0.3870 o         1 MOL     -0.662318
     48 O8          1.1730   -1.2880    1.7620 o         1 MOL     -0.662318
     49 H21         5.8010   -0.3030    0.3090 hn        1 MOL      0.187596
     50 H22         4.2370   -2.6400    1.2520 h1        1 MOL      0.089185
     51 H23         3.5260    0.0360   -0.0470 hc        1 MOL      0.098379
     52 H24         3.4510   -0.3180    1.7490 hc        1 MOL      0.098379
     53 N5          2.9520   -3.6380   -0.7100 n         1 MOL     -0.270362
     54 C17         2.4170   -4.5770   -1.7430 c3        1 MOL     -0.121829
     55 C18         1.4670   -4.0230   -2.7870 c         1 MOL      0.579917
     56 O9          1.2430   -4.7000   -3.7780 o         1 MOL     -0.595504
     57 H25         2.8430   -3.9760    0.2250 hn        1 MOL      0.202893
     58 H26         1.8610   -5.3330   -1.1880 h1        1 MOL      0.088749
     59 H27         3.1920   -5.1070   -2.2880 h1        1 MOL      0.088749
     60 N6          0.8390   -2.9010   -2.6230 n         1 MOL     -0.287046
     61 C19         0.1540   -2.1510   -3.7270 c3        1 MOL      0.152793
     62 C20         0.6980   -0.6400   -3.8220 c         1 MOL      0.394704
     63 O10         0.1850    0.0530   -4.6410 o         1 MOL     -0.505102
     64 C21        -1.3780   -2.1500   -3.6940 c3        1 MOL     -0.444613
     65 C22        -1.9020   -1.1860   -2.7610 c         1 MOL      0.692820
     66 N7         -2.6470   -0.2100   -3.2470 n         1 MOL     -0.650795
     67 O11        -1.6860   -1.1990   -1.5620 o         1 MOL     -0.623520
     68 H28         0.8800   -2.4280   -1.7330 hn        1 MOL      0.226487
     69 H29         0.4780   -2.5740   -4.6830 h1        1 MOL      0.096035
     70 H30        -1.7280   -3.1630   -3.4670 hc        1 MOL      0.138900
     71 H31        -1.6670   -1.8730   -4.7120 hc        1 MOL      0.138900
     72 H32        -2.9620   -0.2750   -4.2080 hn        1 MOL      0.322813
     73 H33        -2.9860    0.5110   -2.6220 hn        1 MOL      0.322813
     74 N8          1.6630   -0.2620   -2.9360 n         1 MOL     -0.087907
     75 C23         2.2450    1.1320   -2.9360 c3        1 MOL     -0.209357
     76 C24         1.5770    2.1530   -2.1320 c         1 MOL      0.587331
     77 O12         1.5010    3.2800   -2.6070 o         1 MOL     -0.540458
     78 H34         1.8650   -0.9090   -2.1800 hn        1 MOL     -0.088727
     79 H35         2.3120    1.6330   -3.8930 h1        1 MOL      0.125502
     80 H36         3.2150    0.9990   -2.4530 h1        1 MOL      0.125502
     81 N9          1.0900    1.8730   -0.9060 n         1 MOL     -0.404013
     82 C25         0.2600    2.7610   -0.0300 c3        1 MOL      0.057150
     83 C26        -1.1550    2.1560    0.2920 c         1 MOL      0.579280
     84 O13        -1.2930    0.9480    0.5200 o         1 MOL     -0.581412
     85 C27         1.0510    3.1710    1.2320 c3        1 MOL     -0.216285
     86 C28         2.2870    3.8950    0.8660 ca        1 MOL      0.233790
     87 C29         2.2380    5.2540    0.5420 ca        1 MOL     -0.309051
     88 C30         3.5160    3.2640    1.0230 ca        1 MOL     -0.309051
     89 C31         3.4700    5.8460    0.1240 ca        1 MOL     -0.208577
     90 C32         4.7170    3.9340    0.7390 ca        1 MOL     -0.208577
     91 C33         4.7310    5.1810    0.2560 ca        1 MOL      0.427962
     92 O14         5.8640    5.8490    0.0280 oh        1 MOL     -0.592257
     93 H37         1.0250    0.8920   -0.6810 hn        1 MOL      0.375399
     94 H38         0.0020    3.6410   -0.6240 h1        1 MOL      0.043139
     95 H39         1.3500    2.2790    1.7850 hc        1 MOL      0.054841
     96 H40         0.4270    3.7490    1.9120 hc        1 MOL      0.054841
     97 H41         1.3530    5.8580    0.4180 ha        1 MOL      0.149159
     98 H42         3.5790    2.2510    1.3890 ha        1 MOL      0.149159
     99 H43         3.5340    6.8180   -0.3410 ha        1 MOL      0.125473
    100 H44         5.6610    3.4670    0.9590 ha        1 MOL      0.125473
    101 H45         6.6570    5.4640    0.4000 ho        1 MOL      0.436252
    102 N10        -2.2140    2.8930    0.1590 n         1 MOL     -0.561437
    103 C34        -3.6330    2.4660    0.3730 c3        1 MOL      0.146689
    104 C35        -4.3170    2.0290   -0.9690 c         1 MOL      0.411098
    105 O15        -4.7340    0.8950   -1.1230 o         1 MOL     -0.371112
    106 C36        -4.4320    3.5500    1.1900 c3        1 MOL      0.020201
    107 C37        -3.8010    3.7670    2.5710 c3        1 MOL      0.165117
    108 C38        -5.8590    3.1510    1.3240 c3        1 MOL     -0.365572
    109 C39        -3.6230    2.5110    3.4580 c3        1 MOL     -0.206880
    110 H46        -2.0990    3.8700   -0.0790 hn        1 MOL      0.316078
    111 H47        -3.7370    1.6060    1.0410 h1        1 MOL      0.048740
    112 H48        -4.3140    4.5100    0.6910 hc        1 MOL     -0.005779
    113 H49        -4.4110    4.4890    3.1110 hc        1 MOL     -0.021261
    114 H50        -2.8820    4.3490    2.4590 hc        1 MOL     -0.021261
    115 H51        -6.4550    3.7400    2.0250 hc        1 MOL      0.106653
    116 H52        -6.3580    3.1390    0.3540 hc        1 MOL      0.106653
    117 H53        -5.8830    2.1030    1.6260 hc        1 MOL      0.106653
    118 H54        -3.2520    2.8680    4.4160 hc        1 MOL      0.066392
    119 H55        -4.5530    1.9690    3.6170 hc        1 MOL      0.066392
    120 H56        -2.8560    1.8630    3.0290 hc        1 MOL      0.066392
    121 N11        -4.2160    2.7980   -2.0270 n         1 MOL     -0.253426
    122 C40        -4.8620    2.5880   -3.3310 c3        1 MOL     -0.390700
    123 C41        -6.3480    2.1090   -3.3060 c         1 MOL      0.553592
    124 O16        -6.7550    1.3330   -4.1650 o         1 MOL     -0.464689
    125 C42        -4.8260    3.7800   -4.2430 c3        1 MOL      0.423554
    126 O17        -3.5100    4.2580   -4.5700 oh        1 MOL     -0.632649
    127 H57        -3.7590    3.6900   -1.8790 hn        1 MOL      0.243115
    128 H58        -4.2560    1.8550   -3.8630 h1        1 MOL      0.134007
    129 H59        -5.5030    4.5660   -3.9010 h1        1 MOL      0.005739
    130 H60        -5.3600    3.4640   -5.1370 h1        1 MOL      0.005739
    131 H61        -2.9360    3.4990   -4.6890 ho        1 MOL      0.418299
    132 N12        -7.1940    2.6770   -2.3750 n         1 MOL     -0.419254
    133 C43        -8.4890    2.1540   -1.8790 c3        1 MOL      0.276110
    134 C44        -8.5940    0.6810   -1.5920 c         1 MOL      0.410769
    135 O18        -9.6390    0.0410   -1.7900 o         1 MOL     -0.539960
    136 C45        -9.7230    2.8440   -2.5800 c3        1 MOL     -0.584857
    137 H62        -6.9240    3.4720   -1.8190 hn        1 MOL      0.247155
    138 H63        -8.5930    2.4870   -0.8390 h1        1 MOL      0.049416
    139 H64        -9.8200    2.4580   -3.5930 hc        1 MOL      0.166675
    140 H65       -10.5140    2.6190   -1.8560 hc        1 MOL      0.166675
    141 H66        -9.4810    3.8810   -2.8200 hc        1 MOL      0.166675
    142 N13        -7.5720    0.0840   -1.0030 n         1 MOL     -0.131562
    143 C46        -7.5700   -1.3450   -0.5250 c3        1 MOL      0.283523
    144 C47        -7.1370   -1.4920    0.9260 c         1 MOL      0.213812
    145 O19        -6.5190   -0.5560    1.5130 o         1 MOL     -0.422223
    146 C48        -6.6540   -2.2030   -1.4570 c3        1 MOL     -0.286201
    147 H67        -6.7270    0.6050   -0.8640 hn        1 MOL     -0.084801
    148 H68        -8.6070   -1.6820   -0.5640 h1        1 MOL      0.023702
    149 H69        -7.0050   -1.9190   -2.4420 hc        1 MOL      0.085260
    150 H70        -5.5960   -1.9940   -1.3210 hc        1 MOL      0.085260
    151 H71        -6.8980   -3.2600   -1.3080 hc        1 MOL      0.085260
    152 N14        -7.3110   -2.6820    1.5350 n         1 MOL     -0.314175
    153 C49        -6.9900   -2.9950    2.9190 c3        1 MOL     -0.240231
    154 C50        -7.7430   -2.1280    4.0180 c         1 MOL      0.464456
    155 O20        -7.2950   -1.8900    5.1450 o         1 MOL     -0.495825
    156 C51        -5.4500   -3.1340    3.1120 c3        1 MOL      0.205024
    157 C52        -4.9060   -4.2610    2.2500 c3        1 MOL     -0.040104
    158 C53        -3.3880   -4.5030    2.3800 c         1 MOL      0.702750
    159 O21        -2.6410   -3.8360    1.6870 o         1 MOL     -0.716748
    160 O22        -3.0230   -5.3160    3.2330 o         1 MOL     -0.716748
    161 H72        -7.5740   -3.4530    0.9280 hn        1 MOL      0.286227
    162 H73        -7.4070   -3.9750    3.1350 h1        1 MOL      0.117446
    163 H74        -5.2090   -3.3300    4.1570 hc        1 MOL      0.004220
    164 H75        -4.9610   -2.1950    2.8720 hc        1 MOL      0.004220
    165 H76        -5.0720   -4.1130    1.1890 hc        1 MOL     -0.026018
    166 H77        -5.4350   -5.1950    2.4450 hc        1 MOL     -0.026018
    167 N15        -8.9480   -1.7420    3.6000 n         1 MOL     -0.228079
    168 C54        -9.7690   -0.7790    4.3410 c3        1 MOL     -0.153840
    169 H78        -9.1330   -0.1980    5.0090 h1        1 MOL      0.087879
    170 H79       -10.2670   -0.1080    3.6390 h1        1 MOL      0.087879
    171 H80       -10.5170   -1.3130    4.9260 h1        1 MOL      0.087879
    172 H81        -9.2960   -2.1330    2.7370 hn        1 MOL      0.225852
    173 Ca1        -1.2100   -1.8010    1.1930 Ca        1 MOL      1.769447
    174 O23        -0.1920   -4.0640    0.2140 oh        1 MOL     -0.816850
    175 H82        -0.6480   -4.8670   -0.0410 ho        1 MOL      0.393229
    176 H83         0.7090   -4.3450    0.3880 ho        1 MOL      0.393229
    177 O24        -3.8020   -1.2030    0.5370 oh        1 MOL     -0.816850
    178 H84        -4.4530   -0.5420    0.8040 ho        1 MOL      0.393229
    179 H85        -3.8500   -1.2050   -0.4230 ho        1 MOL      0.393229
    180 O25        -2.4250   -0.9920    3.3500 oh        1 MOL     -0.816850
    181 H86        -3.1690   -1.4450    3.7610 ho        1 MOL      0.393229
    182 H87        -2.1970   -0.3000    3.9710 ho        1 MOL      0.393229
    183 O26        -0.2560   -3.4920    3.2860 oh        1 MOL     -0.816850
    184 H88        -0.8710   -4.2030    3.0910 ho        1 MOL      0.393229
    185 H89         0.5990   -3.9160    3.3160 ho        1 MOL      0.393229
@<TRIPOS>BOND
     1    1    2 1   
     2    1    4 1   
     3    1    5 1   
     4    1    6 1   
     5    2    3 2   
     6    2    7 1   
     7    7    8 1   
     8    7   15 1   
     9    8    9 1   
    10    8   11 1   
    11    8   16 1   
    12    9   10 2   
    13    9   19 1   
    14   11   12 1   
    15   11   17 1   
    16   11   18 1   
    17   12   13 1   
    18   12   14 1   
    19   19   20 1   
    20   19   28 1   
    21   20   21 1   
    22   20   23 1   
    23   20   29 1   
    24   21   22 2   
    25   21   41 1   
    26   23   24 1   
    27   23   30 1   
    28   23   31 1   
    29   24   25 1   
    30   24   32 1   
    31   24   33 1   
    32   25   26 1   
    33   25   34 1   
    34   25   35 1   
    35   26   27 1   
    36   26   36 1   
    37   26   37 1   
    38   27   38 1   
    39   27   39 1   
    40   27   40 1   
    41   41   42 1   
    42   41   49 1   
    43   42   43 1   
    44   42   45 1   
    45   42   50 1   
    46   43   44 2   
    47   43   53 1   
    48   45   46 1   
    49   45   51 1   
    50   45   52 1   
    51   46   47 1   
    52   46   48 1   
    53   53   54 1   
    54   53   57 1   
    55   54   55 1   
    56   54   58 1   
    57   54   59 1   
    58   55   56 2   
    59   55   60 1   
    60   60   61 1   
    61   60   68 1   
    62   61   62 1   
    63   61   64 1   
    64   61   69 1   
    65   62   63 2   
    66   62   74 1   
    67   64   65 1   
    68   64   70 1   
    69   64   71 1   
    70   65   66 1   
    71   65   67 2   
    72   66   72 1   
    73   66   73 1   
    74   74   75 1   
    75   74   78 1   
    76   75   76 1   
    77   75   79 1   
    78   75   80 1   
    79   76   77 2   
    80   76   81 1   
    81   81   82 1   
    82   81   93 1   
    83   82   83 1   
    84   82   85 1   
    85   82   94 1   
    86   83   84 2   
    87   83  102 1   
    88   85   86 1   
    89   85   95 1   
    90   85   96 1   
    91   86   87 ar  
    92   86   88 ar  
    93   87   89 ar  
    94   87   97 1   
    95   88   90 ar  
    96   88   98 1   
    97   89   91 ar  
    98   89   99 1   
    99   90   91 ar  
   100   90  100 1   
   101   91   92 1   
   102   92  101 1   
   103  102  103 1   
   104  102  110 1   
   105  103  104 1   
   106  103  106 1   
   107  103  111 1   
   108  104  105 2   
   109  104  121 1   
   110  106  107 1   
   111  106  108 1   
   112  106  112 1   
   113  107  109 1   
   114  107  113 1   
   115  107  114 1   
   116  108  115 1   
   117  108  116 1   
   118  108  117 1   
   119  109  118 1   
   120  109  119 1   
   121  109  120 1   
   122  121  122 1   
   123  121  127 1   
   124  122  123 1   
   125  122  125 1   
   126  122  128 1   
   127  123  124 2   
   128  123  132 1   
   129  125  126 1   
   130  125  129 1   
   131  125  130 1   
   132  126  131 1   
   133  132  133 1   
   134  132  137 1   
   135  133  134 1   
   136  133  136 1   
   137  133  138 1   
   138  134  135 2   
   139  134  142 1   
   140  136  139 1   
   141  136  140 1   
   142  136  141 1   
   143  142  143 1   
   144  142  147 1   
   145  143  144 1   
   146  143  146 1   
   147  143  148 1   
   148  144  145 2   
   149  144  152 1   
   150  146  149 1   
   151  146  150 1   
   152  146  151 1   
   153  152  153 1   
   154  152  161 1   
   155  153  154 1   
   156  153  156 1   
   157  153  162 1   
   158  154  155 2   
   159  154  167 1   
   160  156  157 1   
   161  156  163 1   
   162  156  164 1   
   163  157  158 1   
   164  157  165 1   
   165  157  166 1   
   166  158  159 1   
   167  158  160 1   
   168  167  168 1   
   169  167  172 1   
   170  168  169 1   
   171  168  170 1   
   172  168  171 1   
   173  174  175 1   
   174  174  176 1   
   175  177  178 1   
   176  177  179 1   
   177  180  181 1   
   178  180  182 1   
   179  183  184 1   
   180  183  185 1   
@<TRIPOS>SUBSTRUCTURE
     1 MOL         1 TEMP              0 ****  ****    0 ROOT
