@<TRIPOS>MOLECULE
MOL
  188   182     1     0     0
SMALL
resp


@<TRIPOS>ATOM
      1 C1          5.6280    0.4460    5.5690 c3        1 MOL     -0.543512
      2 C2          4.6440    0.4230    4.4060 c         1 MOL      0.792810
      3 O1          3.4750    0.5310    4.5980 o         1 MOL     -0.607834
      4 H1          5.3780    1.2690    6.2390 hc        1 MOL      0.128903
      5 H2          5.5690   -0.4970    6.1130 hc        1 MOL      0.128903
      6 H3          6.6400    0.5840    5.1880 hc        1 MOL      0.128903
      7 N1          5.2200    0.1740    3.2660 n         1 MOL     -0.461191
      8 C3          4.3730    0.1720    2.0480 c3        1 MOL     -0.054059
      9 C4          4.1420   -1.2220    1.4100 c         1 MOL      0.359251
     10 O2          3.2710   -1.4240    0.5730 o         1 MOL     -0.571280
     11 C5          4.8620    1.1390    1.0510 c3        1 MOL     -0.082175
     12 C6          6.4370    0.9870    0.8220 c         1 MOL      0.608118
     13 O3          7.1530    1.9840    0.9670 o         1 MOL     -0.625432
     14 O4          6.9490   -0.1260    0.4590 o         1 MOL     -0.625432
     15 H4          6.2220    0.1730    3.1780 hn        1 MOL      0.300067
     16 H5          3.3390    0.4760    2.2450 h1        1 MOL      0.118990
     17 H6          4.7630    2.1620    1.4300 hc        1 MOL      0.033663
     18 H7          4.2580    1.1630    0.1510 hc        1 MOL      0.033663
     19 N2          4.8390   -2.1830    1.9440 n         1 MOL     -0.123103
     20 C7          4.8010   -3.6370    1.6600 c3        1 MOL      0.081682
     21 C8          5.1550   -4.1320    0.3040 c         1 MOL      0.434502
     22 O5          6.2530   -4.6560    0.1360 o         1 MOL     -0.515884
     23 C9          5.5050   -4.3970    2.9000 c3        1 MOL     -0.264079
     24 C10         4.6480   -4.2930    4.2100 c3        1 MOL      0.238344
     25 C11         5.1860   -5.2880    5.2670 c3        1 MOL     -0.254730
     26 C12         6.6380   -5.0110    5.5830 c3        1 MOL      0.269863
     27 N3          7.3350   -5.9380    6.5090 n4        1 MOL     -0.437749
     28 H8          5.4830   -1.8390    2.6430 hn        1 MOL      0.167342
     29 H9          3.7400   -3.8480    1.7640 h1        1 MOL      0.012440
     30 H10         6.4790   -3.9420    3.0510 hc        1 MOL      0.093758
     31 H11         5.6560   -5.4520    2.6880 hc        1 MOL      0.093758
     32 H12         3.5820   -4.4490    4.1130 hc        1 MOL     -0.025372
     33 H13         4.7680   -3.2530    4.5030 hc        1 MOL     -0.025372
     34 H14         5.1580   -6.3110    4.8890 hc        1 MOL      0.068034
     35 H15         4.5420   -5.2240    6.1440 hc        1 MOL      0.068034
     36 H16         6.7390   -4.0010    5.9930 hx        1 MOL      0.014274
     37 H17         7.0730   -5.0180    4.5900 hx        1 MOL      0.014274
     38 H18         6.6270   -6.2320    7.1690 hn        1 MOL      0.321499
     39 H19         7.6990   -6.7150    5.9790 hn        1 MOL      0.321499
     40 H20         8.0920   -5.5590    7.0620 hn        1 MOL      0.321499
     41 N4          4.3580   -3.7760   -0.7210 n         1 MOL     -0.358019
     42 C13         4.7160   -3.9900   -2.1430 c3        1 MOL      0.181983
     43 C14         5.0470   -2.6640   -2.8520 c         1 MOL      0.508981
     44 O6          5.3570   -2.7010   -4.0590 o         1 MOL     -0.525456
     45 C15         3.6890   -4.8520   -2.8440 c3        1 MOL     -0.293213
     46 C16         2.3120   -4.7250   -2.2880 c         1 MOL      0.783503
     47 O7          1.6610   -5.7880   -2.1200 o         1 MOL     -0.746683
     48 O8          1.8710   -3.5780   -1.9980 o         1 MOL     -0.746683
     49 H21         3.5130   -3.2510   -0.5430 hn        1 MOL      0.240191
     50 H22         5.6430   -4.5600   -2.1240 h1        1 MOL      0.064473
     51 H23         3.8770   -5.9100   -2.6380 hc        1 MOL      0.064175
     52 H24         3.8630   -4.6050   -3.8900 hc        1 MOL      0.064175
     53 N5          4.9430   -1.5270   -2.1200 n         1 MOL     -0.307169
     54 C17         5.2180   -0.2010   -2.7060 c3        1 MOL     -0.174755
     55 C18         6.6120    0.1950   -3.2060 c         1 MOL      0.598841
     56 O9          7.5600   -0.6230   -3.2160 o         1 MOL     -0.522930
     57 H25         4.6210   -1.5440   -1.1680 hn        1 MOL      0.228396
     58 H26         5.0020    0.5240   -1.9190 h1        1 MOL      0.110101
     59 H27         4.6490   -0.0090   -3.6100 h1        1 MOL      0.110101
     60 N6          6.8700    1.4590   -3.5220 n         1 MOL     -0.521909
     61 C19         5.8990    2.5280   -3.5470 c3        1 MOL      0.361043
     62 C20         6.1310    3.4680   -2.3560 c         1 MOL      0.470587
     63 O10         7.3120    3.7020   -2.1620 o         1 MOL     -0.479212
     64 C21         6.1200    3.3630   -4.9200 c3        1 MOL     -0.419478
     65 C22         5.2180    4.5440   -5.2130 c         1 MOL      0.762717
     66 N7          3.9280    4.3350   -5.3440 n         1 MOL     -0.792281
     67 O11         5.6870    5.6460   -5.4230 o         1 MOL     -0.564392
     68 H28         7.7900    1.7520   -3.8140 hn        1 MOL      0.313278
     69 H29         4.8850    2.1220   -3.5600 h1        1 MOL     -0.076903
     70 H30         6.1950    2.6390   -5.7320 hc        1 MOL      0.114147
     71 H31         7.0750    3.8750   -4.7750 hc        1 MOL      0.114147
     72 H32         3.4900    3.5540   -4.8660 hn        1 MOL      0.349521
     73 H33         3.3530    5.1200   -5.5820 hn        1 MOL      0.349521
     74 N8          5.0990    4.1110   -1.8170 n         1 MOL     -0.497287
     75 C23         3.6540    3.7750   -1.8670 c3        1 MOL      0.021309
     76 C24         2.8280    4.3220   -0.6810 c         1 MOL      0.752536
     77 O12         3.3710    4.8230    0.2980 o         1 MOL     -0.533089
     78 H34         5.3050    4.6630   -0.9950 hn        1 MOL      0.296357
     79 H35         3.6210    2.6860   -1.9090 h1        1 MOL      0.013139
     80 H36         3.3120    4.3650   -2.7210 h1        1 MOL      0.013139
     81 N9          1.5160    4.2540   -0.8880 n         1 MOL     -0.676468
     82 C25         0.4310    4.7070    0.0640 c3        1 MOL      0.151015
     83 C26        -0.8230    3.7630    0.1630 c         1 MOL      0.589458
     84 O13        -1.0920    3.0380   -0.7450 o         1 MOL     -0.501934
     85 C27         0.1900    6.2190   -0.1840 c3        1 MOL     -0.027292
     86 C28        -0.5120    7.0460    0.9240 ca        1 MOL      0.085271
     87 C29        -1.6840    7.7540    0.6380 ca        1 MOL     -0.247653
     88 C30        -0.0400    6.9910    2.2600 ca        1 MOL     -0.247653
     89 C31        -2.3980    8.4350    1.6470 ca        1 MOL     -0.142251
     90 C32        -0.8410    7.5700    3.2780 ca        1 MOL     -0.142251
     91 C33        -1.9350    8.4050    2.9960 ca        1 MOL      0.247041
     92 O14        -2.5310    9.0580    4.0180 oh        1 MOL     -0.482171
     93 H37         1.1030    3.7500   -1.6560 hn        1 MOL      0.304262
     94 H38         0.9840    4.6910    1.0020 h1        1 MOL      0.026775
     95 H39        -0.3310    6.4580   -1.1070 hc        1 MOL      0.047304
     96 H40         1.1530    6.7080   -0.3370 hc        1 MOL      0.047304
     97 H41        -2.0860    7.6930   -0.3630 ha        1 MOL      0.158354
     98 H42         0.8830    6.4820    2.4860 ha        1 MOL      0.158354
     99 H43        -3.3560    8.8920    1.4330 ha        1 MOL      0.123510
    100 H44        -0.5270    7.5000    4.3040 ha        1 MOL      0.123510
    101 H45        -2.0840    9.0250    4.8710 ho        1 MOL      0.371539
    102 N10        -1.6250    3.8860    1.2620 n         1 MOL     -0.479865
    103 C34        -2.9070    3.1780    1.5890 c3        1 MOL     -0.297269
    104 C35        -4.0080    3.5410    0.6660 c         1 MOL      0.743300
    105 O15        -4.1270    4.6350    0.1750 o         1 MOL     -0.540828
    106 C36        -3.2000    3.4610    3.0240 c3        1 MOL      0.275283
    107 C37        -2.3650    2.5480    3.9190 c3        1 MOL      0.007861
    108 C38        -2.8040    4.8820    3.4040 c3        1 MOL     -0.245873
    109 C39        -2.9660    2.3890    5.3660 c3        1 MOL     -0.146621
    110 H46        -1.3320    4.6100    1.9030 hn        1 MOL      0.262853
    111 H47        -2.8130    2.1010    1.4830 h1        1 MOL      0.127014
    112 H48        -4.2480    3.2790    3.2830 hc        1 MOL     -0.008045
    113 H49        -1.3640    2.9820    3.8910 hc        1 MOL      0.007405
    114 H50        -2.3640    1.5360    3.5240 hc        1 MOL      0.007405
    115 H51        -3.1600    5.4420    2.5410 hc        1 MOL      0.062669
    116 H52        -3.3840    5.1590    4.2850 hc        1 MOL      0.062669
    117 H53        -1.7270    5.0280    3.5260 hc        1 MOL      0.062669
    118 H54        -2.2300    1.8640    5.9680 hc        1 MOL      0.035518
    119 H55        -3.2700    3.3200    5.8380 hc        1 MOL      0.035518
    120 H56        -3.8720    1.7850    5.3140 hc        1 MOL      0.035518
    121 N11        -4.8660    2.5620    0.3240 n         1 MOL     -0.536800
    122 C40        -6.0100    2.7040   -0.6080 c3        1 MOL      0.141301
    123 C41        -6.2400    1.3690   -1.3520 c         1 MOL      0.654503
    124 O16        -5.5760    0.3370   -1.1580 o         1 MOL     -0.542473
    125 C42        -7.2540    3.2550    0.0860 c3        1 MOL     -0.009614
    126 O17        -7.8160    2.2210    0.9200 oh        1 MOL     -0.581345
    127 H57        -4.8050    1.7460    0.9230 hn        1 MOL      0.280344
    128 H58        -5.7730    3.4440   -1.3700 h1        1 MOL      0.061121
    129 H59        -7.9290    3.4520   -0.7410 h1        1 MOL      0.057426
    130 H60        -7.0400    4.1890    0.6020 h1        1 MOL      0.057426
    131 H61        -8.6240    2.5940    1.2640 ho        1 MOL      0.410645
    132 N12        -6.9430    1.3990   -2.5300 n         1 MOL     -0.618039
    133 C43        -7.0040    0.3000   -3.4370 c3        1 MOL      0.310030
    134 C44        -7.6090   -1.0210   -2.9540 c         1 MOL      0.392913
    135 O18        -7.1770   -2.1440   -3.2300 o         1 MOL     -0.453531
    136 C45        -5.7610    0.2370   -4.2910 c3        1 MOL     -0.483299
    137 H62        -7.3790    2.2670   -2.8230 hn        1 MOL      0.307567
    138 H63        -7.8340    0.5380   -4.1000 h1        1 MOL      0.029193
    139 H64        -5.5480    1.2040   -4.7370 hc        1 MOL      0.143261
    140 H65        -4.9660   -0.1850   -3.6730 hc        1 MOL      0.143261
    141 H66        -5.9310   -0.4310   -5.1340 hc        1 MOL      0.143261
    142 N13        -8.6650   -0.7590   -2.1250 n         1 MOL     -0.457618
    143 C46        -9.5070   -1.7470   -1.3900 c3        1 MOL      0.400459
    144 C47        -8.8320   -2.9620   -0.8520 c         1 MOL      0.432592
    145 O19        -9.2940   -4.1330   -0.9740 o         1 MOL     -0.516436
    146 C48       -10.8690   -1.9240   -2.0180 c3        1 MOL     -0.378595
    147 H67        -8.9620    0.2080   -2.1300 hn        1 MOL      0.230777
    148 H68        -9.7100   -1.1840   -0.4720 h1        1 MOL     -0.037876
    149 H69       -11.4420   -2.5260   -1.3150 hc        1 MOL      0.094296
    150 H70       -11.4350   -0.9850   -2.1060 hc        1 MOL      0.094296
    151 H71       -10.8100   -2.4260   -2.9840 hc        1 MOL      0.094296
    152 N14        -7.7640   -2.6940   -0.1690 n         1 MOL     -0.361113
    153 C49        -6.9120   -3.6440    0.4960 c3        1 MOL     -0.089968
    154 C50        -7.3060   -3.9270    1.9460 c         1 MOL      0.553450
    155 O20        -7.4290   -5.0700    2.2500 o         1 MOL     -0.503557
    156 C51        -5.5170   -2.9950    0.4700 c3        1 MOL      0.398440
    157 C52        -4.4330   -3.8910    0.9610 c3        1 MOL     -0.143810
    158 C53        -3.1740   -3.8640    0.1140 c         1 MOL      0.637894
    159 O21        -2.1570   -3.2650    0.5500 o         1 MOL     -0.733886
    160 O22        -3.1140   -4.2620   -1.0720 o         1 MOL     -0.733886
    161 H72        -7.4390   -1.7350   -0.0920 hn        1 MOL      0.166484
    162 H73        -6.9630   -4.5730   -0.0650 h1        1 MOL      0.148920
    163 H74        -5.5070   -2.1440    1.1520 hc        1 MOL     -0.049289
    164 H75        -5.2840   -2.6860   -0.5520 hc        1 MOL     -0.049289
    165 H76        -4.7850   -4.9160    0.8180 hc        1 MOL     -0.009446
    166 H77        -4.0740   -3.6750    1.9620 hc        1 MOL     -0.009446
    167 N15        -7.5000   -2.8330    2.8110 n         1 MOL     -0.430178
    168 C54        -7.9330   -3.0250    4.2440 c3        1 MOL     -0.198278
    169 H78        -7.8460   -4.0780    4.5110 h1        1 MOL      0.107408
    170 H79        -7.2970   -2.4300    4.8990 h1        1 MOL      0.107408
    171 H80        -8.9700   -2.7080    4.3560 h1        1 MOL      0.107408
    172 H81        -7.4120   -1.8970    2.4460 hn        1 MOL      0.277193
    173 Ca1        -0.5110   -4.0020   -1.2970 Ca        1 MOL      1.780794
    174 O23         0.6630   -4.8440    1.0110 oh        1 MOL     -0.855361
    175 H82         1.3490   -5.4720    1.2340 ho        1 MOL      0.420323
    176 H83         0.2070   -4.6700    1.8290 ho        1 MOL      0.420323
    177 O24        -1.1920   -1.7960   -2.9380 oh        1 MOL     -0.855361
    178 H84        -1.9840   -1.3850   -2.5870 ho        1 MOL      0.420323
    179 H85        -1.0390   -1.3470   -3.7670 ho        1 MOL      0.420323
    180 O25        -1.0590   -6.6820   -1.4300 oh        1 MOL     -0.855361
    181 O26        -1.0180   -4.7130   -4.0090 oh        1 MOL     -0.855361
    182 H86        -0.2640   -7.1900   -1.2780 ho        1 MOL      0.420323
    183 H87        -1.1880   -4.3100   -4.8570 ho        1 MOL      0.420323
    184 H88        -1.7230   -7.3400   -1.6620 ho        1 MOL      0.420323
    185 H89        -1.0790   -5.6570   -4.1810 ho        1 MOL      0.420323
    186 O27         0.6580   -2.0620    0.2310 oh        1 MOL     -0.855361
    187 H90         0.2060   -1.4620    0.8270 ho        1 MOL      0.420323
    188 H91         1.5760   -1.7850    0.2670 ho        1 MOL      0.420323
@<TRIPOS>BOND
     1    1    2 1   
     2    1    4 1   
     3    1    5 1   
     4    1    6 1   
     5    2    3 2   
     6    2    7 1   
     7    7    8 1   
     8    7   15 1   
     9    8    9 1   
    10    8   11 1   
    11    8   16 1   
    12    9   10 2   
    13    9   19 1   
    14   11   12 1   
    15   11   17 1   
    16   11   18 1   
    17   12   13 1   
    18   12   14 1   
    19   19   20 1   
    20   19   28 1   
    21   20   21 1   
    22   20   23 1   
    23   20   29 1   
    24   21   22 2   
    25   21   41 1   
    26   23   24 1   
    27   23   30 1   
    28   23   31 1   
    29   24   25 1   
    30   24   32 1   
    31   24   33 1   
    32   25   26 1   
    33   25   34 1   
    34   25   35 1   
    35   26   27 1   
    36   26   36 1   
    37   26   37 1   
    38   27   38 1   
    39   27   39 1   
    40   27   40 1   
    41   41   42 1   
    42   41   49 1   
    43   42   43 1   
    44   42   45 1   
    45   42   50 1   
    46   43   44 2   
    47   43   53 1   
    48   45   46 1   
    49   45   51 1   
    50   45   52 1   
    51   46   47 1   
    52   46   48 1   
    53   53   54 1   
    54   53   57 1   
    55   54   55 1   
    56   54   58 1   
    57   54   59 1   
    58   55   56 2   
    59   55   60 1   
    60   60   61 1   
    61   60   68 1   
    62   61   62 1   
    63   61   64 1   
    64   61   69 1   
    65   62   63 2   
    66   62   74 1   
    67   64   65 1   
    68   64   70 1   
    69   64   71 1   
    70   65   66 1   
    71   65   67 2   
    72   66   72 1   
    73   66   73 1   
    74   74   75 1   
    75   74   78 1   
    76   75   76 1   
    77   75   79 1   
    78   75   80 1   
    79   76   77 2   
    80   76   81 1   
    81   81   82 1   
    82   81   93 1   
    83   82   83 1   
    84   82   85 1   
    85   82   94 1   
    86   83   84 2   
    87   83  102 1   
    88   85   86 1   
    89   85   95 1   
    90   85   96 1   
    91   86   87 ar  
    92   86   88 ar  
    93   87   89 ar  
    94   87   97 1   
    95   88   90 ar  
    96   88   98 1   
    97   89   91 ar  
    98   89   99 1   
    99   90   91 ar  
   100   90  100 1   
   101   91   92 1   
   102   92  101 1   
   103  102  103 1   
   104  102  110 1   
   105  103  104 1   
   106  103  106 1   
   107  103  111 1   
   108  104  105 2   
   109  104  121 1   
   110  106  107 1   
   111  106  108 1   
   112  106  112 1   
   113  107  109 1   
   114  107  113 1   
   115  107  114 1   
   116  108  115 1   
   117  108  116 1   
   118  108  117 1   
   119  109  118 1   
   120  109  119 1   
   121  109  120 1   
   122  121  122 1   
   123  121  127 1   
   124  122  123 1   
   125  122  125 1   
   126  122  128 1   
   127  123  124 2   
   128  123  132 1   
   129  125  126 1   
   130  125  129 1   
   131  125  130 1   
   132  126  131 1   
   133  132  133 1   
   134  132  137 1   
   135  133  134 1   
   136  133  136 1   
   137  133  138 1   
   138  134  135 2   
   139  134  142 1   
   140  136  139 1   
   141  136  140 1   
   142  136  141 1   
   143  142  143 1   
   144  142  147 1   
   145  143  144 1   
   146  143  146 1   
   147  143  148 1   
   148  144  145 2   
   149  144  152 1   
   150  146  149 1   
   151  146  150 1   
   152  146  151 1   
   153  152  153 1   
   154  152  161 1   
   155  153  154 1   
   156  153  156 1   
   157  153  162 1   
   158  154  155 2   
   159  154  167 1   
   160  156  157 1   
   161  156  163 1   
   162  156  164 1   
   163  157  158 1   
   164  157  165 1   
   165  157  166 1   
   166  158  159 1   
   167  158  160 1   
   168  167  168 1   
   169  167  172 1   
   170  168  169 1   
   171  168  170 1   
   172  168  171 1   
   173  174  175 1   
   174  174  176 1   
   175  177  178 1   
   176  177  179 1   
   177  180  182 1   
   178  180  184 1   
   179  181  183 1   
   180  181  185 1   
   181  186  187 1   
   182  186  188 1   
@<TRIPOS>SUBSTRUCTURE
     1 MOL         1 TEMP              0 ****  ****    0 ROOT
