@<TRIPOS>MOLECULE
MOL
  181   177     1     0     0
SMALL
resp


@<TRIPOS>ATOM
      1 C1         -3.2730   -1.7560   -4.2650 c3        1 MOL     -0.309159
      2 C2         -4.3940   -0.8190   -3.7760 c         1 MOL      0.741677
      3 O1         -4.1380    0.2930   -3.3660 o         1 MOL     -0.574988
      4 H1         -2.6410   -2.0370   -3.4230 hc        1 MOL      0.068554
      5 H2         -3.7130   -2.6530   -4.7030 hc        1 MOL      0.068554
      6 H3         -2.6710   -1.2430   -5.0150 hc        1 MOL      0.068554
      7 N1         -5.6220   -1.2810   -3.6940 n         1 MOL     -0.753875
      8 C3         -6.7460   -0.6040   -3.0460 c3        1 MOL      0.508182
      9 C4         -6.9260   -1.0940   -1.5840 c         1 MOL      0.402423
     10 O2         -6.2850   -2.0270   -1.1940 o         1 MOL     -0.507133
     11 C5         -8.0340   -0.8400   -3.9510 c3        1 MOL     -0.188360
     12 C6         -9.1870    0.1600   -3.6320 c         1 MOL      0.686444
     13 O3        -10.0620    0.3070   -4.4480 o         1 MOL     -0.690178
     14 O4         -9.0300    0.9670   -2.6420 o         1 MOL     -0.690178
     15 H4         -5.7360   -2.2650   -3.8870 hn        1 MOL      0.294852
     16 H5         -6.5920    0.4790   -2.9940 h1        1 MOL     -0.000378
     17 H6         -8.4920   -1.8200   -3.8130 hc        1 MOL      0.002558
     18 H7         -7.6670   -0.6880   -4.9710 hc        1 MOL      0.002558
     19 N2         -7.7460   -0.4810   -0.7060 n         1 MOL     -0.615112
     20 C7         -7.8060   -0.8180    0.7200 c3        1 MOL      0.502363
     21 C8         -6.4780   -0.2340    1.3890 c         1 MOL      0.606793
     22 O5         -5.7150    0.5950    0.8080 o         1 MOL     -0.562106
     23 C9         -9.0880   -0.2880    1.4420 c3        1 MOL     -0.479867
     24 H8         -8.3070    0.2670   -1.1040 hn        1 MOL      0.274642
     25 H9         -7.7540   -1.8940    0.9040 h1        1 MOL     -0.059596
     26 H10        -9.2090   -0.7340    2.4260 hc        1 MOL      0.120016
     27 H11        -9.0850    0.8020    1.4480 hc        1 MOL      0.120016
     28 H12        -9.9200   -0.6250    0.8200 hc        1 MOL      0.120016
     29 N3         -6.2310   -0.5360    2.6430 n         1 MOL     -0.812319
     30 C10        -4.9480   -0.0960    3.2670 c3        1 MOL      0.487969
     31 C11        -5.1390    1.3020    3.9720 c         1 MOL      0.475627
     32 O6         -6.2200    1.6200    4.3930 o         1 MOL     -0.517017
     33 C12        -4.1790   -1.1510    4.0280 c3        1 MOL     -0.478480
     34 C13        -3.7450   -2.4010    3.2820 c         1 MOL      1.024600
     35 O7         -2.9940   -2.3150    2.2930 o         1 MOL     -0.795246
     36 O8         -4.1590   -3.5250    3.7010 o         1 MOL     -0.795246
     37 H13        -6.9310   -1.1070    3.0840 hn        1 MOL      0.350591
     38 H14        -4.2360    0.0920    2.4640 h1        1 MOL      0.039028
     39 H15        -4.6450   -1.3190    5.0010 hc        1 MOL      0.065124
     40 H16        -3.2840   -0.6830    4.4290 hc        1 MOL      0.065124
     41 N4         -4.0710    2.1110    4.1540 n         1 MOL     -0.333948
     42 C14        -4.0820    3.4600    4.5530 c3        1 MOL     -0.113009
     43 C15        -2.8790    4.3930    4.3840 c         1 MOL      0.639011
     44 O9         -2.8660    5.4150    5.0810 o         1 MOL     -0.585583
     45 H17        -3.2860    1.7490    3.6460 hn        1 MOL      0.189153
     46 H18        -4.2950    3.4120    5.6270 h1        1 MOL      0.086094
     47 H19        -4.9360    3.9750    4.1050 h1        1 MOL      0.086094
     48 N5         -1.8300    4.0980    3.5770 n         1 MOL     -0.461026
     49 C16        -0.5900    4.9230    3.3560 c3        1 MOL      0.082473
     50 C17        -0.3600    5.0470    1.8650 c         1 MOL      0.378422
     51 O10        -0.2640    4.1320    1.0270 o         1 MOL     -0.428483
     52 C18         0.5940    4.1680    3.9790 c3        1 MOL     -0.318847
     53 C19         0.4480    4.0600    5.4490 c         1 MOL      0.702867
     54 N6          0.4270    5.2010    6.1350 n         1 MOL     -0.837187
     55 O11         0.3510    2.9310    5.9350 o         1 MOL     -0.540051
     56 H20        -1.7870    3.2100    3.0980 hn        1 MOL      0.320534
     57 H21        -0.7070    5.8650    3.8840 h1        1 MOL      0.054348
     58 H22         1.3640    4.9010    3.7480 hc        1 MOL      0.114099
     59 H23         0.6880    3.1950    3.5130 hc        1 MOL      0.114099
     60 H24         0.4820    6.0780    5.6410 hn        1 MOL      0.381436
     61 H25         0.2440    5.2170    7.1280 hn        1 MOL      0.381436
     62 N7         -0.2830    6.2690    1.3680 n         1 MOL     -0.290503
     63 C20         0.0390    6.7580    0.0410 c3        1 MOL     -0.257270
     64 C21         1.5010    6.4990   -0.4840 c         1 MOL      0.630646
     65 O12         2.3740    6.1330    0.2740 o         1 MOL     -0.484542
     66 H26        -0.4870    7.0090    2.0220 hn        1 MOL      0.251061
     67 H27        -0.2110    7.8110   -0.0720 h1        1 MOL      0.134887
     68 H28        -0.5390    6.2240   -0.7090 h1        1 MOL      0.134887
     69 N8          1.7400    6.7680   -1.7990 n         1 MOL     -0.551507
     70 C22         2.9810    6.5030   -2.5000 c3        1 MOL     -0.065786
     71 C23         3.1860    5.0340   -2.9120 c         1 MOL      0.573812
     72 O13         4.3030    4.7920   -3.3310 o         1 MOL     -0.571515
     73 C24         3.2290    7.3710   -3.7230 c3        1 MOL      0.363745
     74 C25         2.1960    7.2190   -4.8600 c3        1 MOL     -0.130691
     75 O14         3.1970    8.7510   -3.3190 oh        1 MOL     -0.650083
     76 H29         0.9910    7.1480   -2.3600 hn        1 MOL      0.266603
     77 H30         3.8270    6.7220   -1.8540 h1        1 MOL      0.100986
     78 H31         4.2140    7.1530   -4.1290 h1        1 MOL      0.064703
     79 H32         2.3220    8.9720   -2.9920 ho        1 MOL      0.385014
     80 H33         2.3650    6.3510   -5.5040 hc        1 MOL      0.025569
     81 H34         1.1900    7.1310   -4.4640 hc        1 MOL      0.025569
     82 H35         2.0970    8.1380   -5.4410 hc        1 MOL      0.025569
     83 N9          2.1650    4.2030   -2.8260 n         1 MOL     -0.457198
     84 C26         2.3880    2.8330   -3.3260 c3        1 MOL     -0.048081
     85 C27         1.4480    1.9380   -2.4540 c         1 MOL      0.563839
     86 O15         0.3270    2.2070   -2.0720 o         1 MOL     -0.489478
     87 C28         2.0160    2.7110   -4.7560 c3        1 MOL      0.090530
     88 C29         2.9610    3.3950   -5.7740 c3        1 MOL      0.059732
     89 C30         1.7760    1.2590   -5.2250 c3        1 MOL     -0.056464
     90 C31         4.4000    2.7580   -5.6520 c3        1 MOL     -0.237427
     91 H36         1.3920    4.5090   -2.2680 hn        1 MOL      0.287844
     92 H37         3.3680    2.4990   -2.9870 h1        1 MOL      0.142230
     93 H38         1.1300    3.2890   -5.0000 hc        1 MOL     -0.012339
     94 H39         3.1150    4.4340   -5.4880 hc        1 MOL      0.009233
     95 H40         2.6230    3.3610   -6.8090 hc        1 MOL      0.009233
     96 H41         2.5640    0.6610   -4.7660 hc        1 MOL      0.019640
     97 H42         0.8040    0.9550   -4.8490 hc        1 MOL      0.019640
     98 H43         1.7600    1.0980   -6.3030 hc        1 MOL      0.019640
     99 H44         4.9910    3.4890   -6.2030 hc        1 MOL      0.042620
    100 H45         4.6600    2.6670   -4.5980 hc        1 MOL      0.042620
    101 H46         4.4500    1.8250   -6.2080 hc        1 MOL      0.042620
    102 N10         2.0330    0.8000   -2.1160 n         1 MOL     -0.594760
    103 C32         1.5090   -0.2760   -1.1790 c3        1 MOL      0.635691
    104 C33         2.4800   -0.8410   -0.1170 c         1 MOL      0.257924
    105 O16         2.4370   -2.0170    0.3710 o         1 MOL     -0.370341
    106 C34         0.8580   -1.4040   -2.0160 c3        1 MOL     -0.517303
    107 C35        -0.1200   -2.2140   -1.2350 c         1 MOL      0.965145
    108 O17        -0.6240   -3.2370   -1.7060 o         1 MOL     -0.742238
    109 O18        -0.5570   -1.8860   -0.1390 o         1 MOL     -0.742238
    110 H47         2.9270    0.6060   -2.5350 hn        1 MOL      0.283757
    111 H48         0.6930    0.1980   -0.6300 h1        1 MOL     -0.011987
    112 H49         1.6170   -2.1270   -2.3250 hc        1 MOL      0.066176
    113 H50         0.3260   -1.0390   -2.8940 hc        1 MOL      0.066176
    114 N11         3.5150   -0.0660    0.1800 n         1 MOL     -0.579687
    115 C36         4.5910   -0.5780    1.0660 c3        1 MOL      0.591119
    116 C37         5.4080   -1.6210    0.4400 c         1 MOL      0.296743
    117 O19         5.6640   -1.6000   -0.7700 o         1 MOL     -0.561771
    118 C38         5.4830    0.5660    1.4640 c3        1 MOL     -0.335638
    119 C39         6.5850    0.4560    2.5540 ca        1 MOL      0.141503
    120 C40         6.2490    0.6320    3.9370 ca        1 MOL     -0.223019
    121 C41         7.8660    0.0210    2.1660 ca        1 MOL     -0.223019
    122 C42         7.2160    0.4950    4.8880 ca        1 MOL     -0.071629
    123 C43         8.8180   -0.2500    3.2460 ca        1 MOL     -0.071629
    124 C44         8.4750   -0.0340    4.5940 ca        1 MOL     -0.151174
    125 H51         3.7180    0.7920   -0.3340 hn        1 MOL      0.250658
    126 H52         4.2670   -0.9740    2.0200 h1        1 MOL     -0.055737
    127 H53         4.8330    1.3450    1.8720 hc        1 MOL      0.092377
    128 H54         5.8420    0.9080    0.4890 hc        1 MOL      0.092377
    129 H55         5.2800    0.9600    4.2740 ha        1 MOL      0.151872
    130 H56         8.1630   -0.1540    1.1430 ha        1 MOL      0.151872
    131 H57         6.9090    0.8350    5.8690 ha        1 MOL      0.100245
    132 H58         9.8320   -0.5720    3.0820 ha        1 MOL      0.100245
    133 H59         9.2360   -0.1920    5.3480 ha        1 MOL      0.109253
    134 N12         5.9180   -2.5810    1.2290 n         1 MOL     -0.037754
    135 C45         6.6000   -3.6870    0.6050 c3        1 MOL     -0.054648
    136 C46         5.8450   -4.7070   -0.2430 c         1 MOL      0.362981
    137 O20         6.4940   -5.4490   -0.9380 o         1 MOL     -0.508498
    138 C47         7.1390   -4.4040    1.8160 c3        1 MOL      0.040894
    139 C48         6.0220   -4.2650    2.8580 c3        1 MOL     -0.027161
    140 C49         5.6860   -2.7910    2.6510 c3        1 MOL     -0.207082
    141 H60         7.4640   -3.3030    0.0620 h1        1 MOL      0.082419
    142 H61         7.4710   -5.4000    1.5450 hc        1 MOL      0.006038
    143 H62         8.0270   -3.8850    2.1600 hc        1 MOL      0.006038
    144 H63         5.1970   -4.9160    2.6140 hc        1 MOL      0.024077
    145 H64         6.4320   -4.4060    3.8580 hc        1 MOL      0.024077
    146 H65         4.6600   -2.6280    2.9640 h1        1 MOL      0.117815
    147 H66         6.4040   -2.1660    3.1800 h1        1 MOL      0.117815
    148 N13         4.4700   -4.6310   -0.2990 n         1 MOL     -0.119645
    149 C50         3.5910   -5.5320   -1.1100 c3        1 MOL     -0.147082
    150 C51         3.8480   -5.3960   -2.5910 c         1 MOL      0.595493
    151 O21         3.9280   -6.3500   -3.3390 o         1 MOL     -0.574314
    152 C52         2.1520   -5.4030   -0.7040 c3        1 MOL      0.252740
    153 C53         1.8160   -5.7240    0.7930 c3        1 MOL     -0.438895
    154 C54         0.3440   -5.4010    1.0760 c         1 MOL      0.841037
    155 O22        -0.0460   -4.4560    1.7300 o         1 MOL     -0.793254
    156 O23        -0.5810   -6.0080    0.4360 o         1 MOL     -0.793254
    157 H67         4.0270   -3.9000    0.2250 hn        1 MOL      0.137725
    158 H68         3.9160   -6.5380   -0.8450 h1        1 MOL      0.085774
    159 H69         1.6500   -6.1020   -1.3660 hc        1 MOL     -0.041253
    160 H70         1.8800   -4.3640   -0.9110 hc        1 MOL     -0.041253
    161 H71         2.4150   -5.1040    1.4540 hc        1 MOL      0.092222
    162 H72         2.0210   -6.7750    1.0150 hc        1 MOL      0.092222
    163 N14         4.1280   -4.1910   -3.0820 n         1 MOL     -0.298678
    164 C55         4.1240   -3.9290   -4.5020 c3        1 MOL     -0.208270
    165 H73         3.1560   -3.5190   -4.7920 h1        1 MOL      0.088495
    166 H74         4.9080   -3.2120   -4.7420 h1        1 MOL      0.088495
    167 H75         4.3020   -4.8580   -5.0430 h1        1 MOL      0.088495
    168 H76         3.9780   -3.3810   -2.5110 hn        1 MOL      0.272328
    169 Ca1        -2.2210   -3.9810    0.3830 Ca        1 MOL      1.803099
    170 O24        -3.0830   -5.6170    2.5570 oh        1 MOL     -0.861645
    171 H77        -3.6090   -6.3870    2.7530 ho        1 MOL      0.400979
    172 H78        -3.5620   -4.8850    2.9680 ho        1 MOL      0.400979
    173 O25        -3.1380   -5.0760   -1.8590 oh        1 MOL     -0.861645
    174 H79        -4.0670   -4.9050   -2.0550 ho        1 MOL      0.400979
    175 H80        -2.7220   -5.1270   -2.7230 ho        1 MOL      0.400979
    176 O26        -3.4420   -1.8280   -0.6740 oh        1 MOL     -0.861645
    177 H81        -4.3540   -1.7830   -0.9400 ho        1 MOL      0.400979
    178 H82        -3.1060   -0.9450   -0.8040 ho        1 MOL      0.400979
    179 O27        -4.8700   -4.2140    0.3520 oh        1 MOL     -0.861645
    180 H83        -5.5360   -3.5700    0.1230 ho        1 MOL      0.400979
    181 H84        -5.3460   -5.0300    0.4430 ho        1 MOL      0.400979
@<TRIPOS>BOND
     1    1    2 1   
     2    1    4 1   
     3    1    5 1   
     4    1    6 1   
     5    2    3 2   
     6    2    7 1   
     7    7    8 1   
     8    7   15 1   
     9    8    9 1   
    10    8   11 1   
    11    8   16 1   
    12    9   10 2   
    13    9   19 1   
    14   11   12 1   
    15   11   17 1   
    16   11   18 1   
    17   12   13 1   
    18   12   14 1   
    19   19   20 1   
    20   19   24 1   
    21   20   21 1   
    22   20   23 1   
    23   20   25 1   
    24   21   22 2   
    25   21   29 1   
    26   23   26 1   
    27   23   27 1   
    28   23   28 1   
    29   29   30 1   
    30   29   37 1   
    31   30   31 1   
    32   30   33 1   
    33   30   38 1   
    34   31   32 2   
    35   31   41 1   
    36   33   34 1   
    37   33   39 1   
    38   33   40 1   
    39   34   35 1   
    40   34   36 1   
    41   41   42 1   
    42   41   45 1   
    43   42   43 1   
    44   42   46 1   
    45   42   47 1   
    46   43   44 2   
    47   43   48 1   
    48   48   49 1   
    49   48   56 1   
    50   49   50 1   
    51   49   52 1   
    52   49   57 1   
    53   50   51 2   
    54   50   62 1   
    55   52   53 1   
    56   52   58 1   
    57   52   59 1   
    58   53   54 1   
    59   53   55 2   
    60   54   60 1   
    61   54   61 1   
    62   62   63 1   
    63   62   66 1   
    64   63   64 1   
    65   63   67 1   
    66   63   68 1   
    67   64   65 2   
    68   64   69 1   
    69   69   70 1   
    70   69   76 1   
    71   70   71 1   
    72   70   73 1   
    73   70   77 1   
    74   71   72 2   
    75   71   83 1   
    76   73   74 1   
    77   73   75 1   
    78   73   78 1   
    79   74   80 1   
    80   74   81 1   
    81   74   82 1   
    82   75   79 1   
    83   83   84 1   
    84   83   91 1   
    85   84   85 1   
    86   84   87 1   
    87   84   92 1   
    88   85   86 2   
    89   85  102 1   
    90   87   88 1   
    91   87   89 1   
    92   87   93 1   
    93   88   90 1   
    94   88   94 1   
    95   88   95 1   
    96   89   96 1   
    97   89   97 1   
    98   89   98 1   
    99   90   99 1   
   100   90  100 1   
   101   90  101 1   
   102  102  103 1   
   103  102  110 1   
   104  103  104 1   
   105  103  106 1   
   106  103  111 1   
   107  104  105 2   
   108  104  114 1   
   109  106  107 1   
   110  106  112 1   
   111  106  113 1   
   112  107  108 1   
   113  107  109 1   
   114  114  115 1   
   115  114  125 1   
   116  115  116 1   
   117  115  118 1   
   118  115  126 1   
   119  116  117 2   
   120  116  134 1   
   121  118  119 1   
   122  118  127 1   
   123  118  128 1   
   124  119  120 ar  
   125  119  121 ar  
   126  120  122 ar  
   127  120  129 1   
   128  121  123 ar  
   129  121  130 1   
   130  122  124 ar  
   131  122  131 1   
   132  123  124 ar  
   133  123  132 1   
   134  124  133 1   
   135  134  135 1   
   136  134  140 1   
   137  135  136 1   
   138  135  138 1   
   139  135  141 1   
   140  136  137 2   
   141  136  148 1   
   142  138  139 1   
   143  138  142 1   
   144  138  143 1   
   145  139  140 1   
   146  139  144 1   
   147  139  145 1   
   148  140  146 1   
   149  140  147 1   
   150  148  149 1   
   151  148  157 1   
   152  149  150 1   
   153  149  152 1   
   154  149  158 1   
   155  150  151 2   
   156  150  163 1   
   157  152  153 1   
   158  152  159 1   
   159  152  160 1   
   160  153  154 1   
   161  153  161 1   
   162  153  162 1   
   163  154  155 1   
   164  154  156 1   
   165  163  164 1   
   166  163  168 1   
   167  164  165 1   
   168  164  166 1   
   169  164  167 1   
   170  170  171 1   
   171  170  172 1   
   172  173  174 1   
   173  173  175 1   
   174  176  177 1   
   175  176  178 1   
   176  179  180 1   
   177  179  181 1   
@<TRIPOS>SUBSTRUCTURE
     1 MOL         1 TEMP              0 ****  ****    0 ROOT
