@<TRIPOS>MOLECULE
MOL
  201   193     1     0     0
SMALL
resp


@<TRIPOS>ATOM
      1 C1         -4.3090   -5.6370   -0.5560 c3        1 MOL     -0.277207
      2 C2         -4.9010   -4.4670   -1.3830 c         1 MOL      0.569451
      3 O1         -4.2850   -3.8440   -2.2450 o         1 MOL     -0.561295
      4 H1         -3.2910   -5.8390   -0.8900 hc        1 MOL      0.076370
      5 H2         -4.2960   -5.3660    0.5000 hc        1 MOL      0.076370
      6 H3         -4.9210   -6.5280   -0.6960 hc        1 MOL      0.076370
      7 N1         -6.1330   -4.0910   -1.0310 n         1 MOL     -0.190309
      8 C3         -6.9420   -3.1610   -1.7760 c3        1 MOL     -0.389659
      9 C4         -6.5200   -1.6870   -1.5090 c         1 MOL      0.386379
     10 O2         -6.1370   -1.2690   -0.4140 o         1 MOL     -0.443754
     11 C5         -8.4630   -3.3440   -1.4520 c3        1 MOL      0.147119
     12 C6         -8.9110   -3.7230    0.0120 c         1 MOL      0.521956
     13 O3        -10.0140   -4.3200    0.1830 o         1 MOL     -0.637601
     14 O4         -8.1530   -3.5680    1.0170 o         1 MOL     -0.637601
     15 H4         -6.5130   -4.5900   -0.2260 hn        1 MOL      0.185047
     16 H5         -6.7320   -3.4170   -2.8140 h1        1 MOL      0.171186
     17 H6         -8.8900   -4.0030   -2.2050 hc        1 MOL      0.035694
     18 H7         -9.0170   -2.4530   -1.7520 hc        1 MOL      0.035694
     19 N2         -6.7420   -0.8400   -2.5610 n         1 MOL     -0.395013
     20 C7         -6.4200    0.5670   -2.5220 c3        1 MOL      0.272752
     21 C8         -7.6420    1.4030   -2.2160 c         1 MOL      0.400757
     22 O5         -8.1140    2.1980   -3.0070 o         1 MOL     -0.561415
     23 C9         -5.6850    0.9940   -3.8170 c3        1 MOL     -0.174876
     24 C10        -4.6950    2.1860   -3.5060 c3        1 MOL     -0.059072
     25 C11        -4.3280    2.9130   -4.7300 c3        1 MOL     -0.077732
     26 C12        -3.1010    3.8780   -4.4750 c3        1 MOL     -0.064839
     27 N3         -3.4930    4.9260   -3.4860 n4        1 MOL     -0.304895
     28 H8         -7.0950   -1.2580   -3.4060 hn        1 MOL      0.276519
     29 H9         -5.7310    0.6510   -1.6790 h1        1 MOL     -0.010707
     30 H10        -6.3230    1.2850   -4.6500 hc        1 MOL      0.074917
     31 H11        -5.0790    0.1840   -4.2080 hc        1 MOL      0.074917
     32 H12        -3.7690    1.7780   -3.0870 hc        1 MOL      0.043801
     33 H13        -5.1250    2.6810   -2.6360 hc        1 MOL      0.043801
     34 H14        -5.2290    3.3450   -5.1740 hc        1 MOL      0.065661
     35 H15        -3.9820    2.1990   -5.4840 hc        1 MOL      0.065661
     36 H16        -2.6700    4.2580   -5.4030 hx        1 MOL      0.107291
     37 H17        -2.3030    3.2650   -4.0480 hx        1 MOL      0.107291
     38 H18        -3.6650    4.4550   -2.6110 hn        1 MOL      0.322906
     39 H19        -2.7210    5.5350   -3.2630 hn        1 MOL      0.322906
     40 H20        -4.2780    5.4370   -3.8470 hn        1 MOL      0.322906
     41 N4         -8.2010    1.1540   -1.0730 n         1 MOL     -0.003253
     42 C13        -9.3010    1.9620   -0.5330 c3        1 MOL      0.020858
     43 C14        -8.9880    2.6920    0.7580 c         1 MOL      0.663862
     44 O6         -9.3890    2.2740    1.8580 o         1 MOL     -0.600490
     45 C15       -10.4320    0.9870   -0.1920 c3        1 MOL     -0.090001
     46 C16       -10.2310   -0.3400    0.5950 c         1 MOL      0.618457
     47 O7         -9.0760   -0.7930    0.7680 o         1 MOL     -0.641670
     48 O8        -11.1910   -1.0490    0.9060 o         1 MOL     -0.641670
     49 H21        -7.8500    0.4320   -0.4590 hn        1 MOL     -0.172986
     50 H22        -9.7430    2.7180   -1.1670 h1        1 MOL      0.075482
     51 H23       -10.8930    0.7460   -1.1500 hc        1 MOL      0.031756
     52 H24       -11.1810    1.5790    0.3370 hc        1 MOL      0.031756
     53 N5         -8.2150    3.7840    0.8160 n         1 MOL     -0.538072
     54 C17        -7.3810    4.3980   -0.2480 c3        1 MOL     -0.048711
     55 C18        -5.8530    4.3200    0.0320 c         1 MOL      0.528977
     56 O9         -5.0580    4.5010   -0.9320 o         1 MOL     -0.658028
     57 H25        -7.9590    4.1030    1.7450 hn        1 MOL      0.307536
     58 H26        -7.6530    5.4470   -0.2870 h1        1 MOL      0.099984
     59 H27        -7.5760    3.8200   -1.1590 h1        1 MOL      0.099984
     60 N6         -5.4480    4.1310    1.3330 n         1 MOL     -0.308393
     61 C19        -4.0850    4.0250    1.7500 c3        1 MOL      0.161914
     62 C20        -3.2890    2.7950    1.3530 c         1 MOL      0.425237
     63 O10        -3.8650    1.7770    1.0950 o         1 MOL     -0.406734
     64 C21        -4.0080    4.2030    3.2980 c3        1 MOL     -0.392147
     65 C22        -4.8460    5.3860    3.9520 c         1 MOL      0.707429
     66 O11        -4.9260    5.5240    5.2240 o         1 MOL     -0.674415
     67 O12        -5.4100    6.2620    3.2900 o         1 MOL     -0.674415
     68 H28        -6.1840    3.9540    1.9980 hn        1 MOL      0.236148
     69 H29        -3.6090    4.9410    1.4080 h1        1 MOL      0.047192
     70 H30        -2.9770    4.4550    3.5430 hc        1 MOL      0.081560
     71 H31        -4.1650    3.2590    3.8080 hc        1 MOL      0.081560
     72 N7         -1.9650    2.8740    1.4210 n         1 MOL     -0.449227
     73 C23        -1.0450    1.7910    1.3540 c3        1 MOL     -0.169078
     74 C24        -0.8030    1.0490    0.0240 c         1 MOL      0.660224
     75 O13        -0.5820    1.6550   -1.0420 o         1 MOL     -0.570513
     76 H32        -1.4700    3.7170    1.6830 hn        1 MOL      0.332351
     77 H33        -1.3620    1.0140    2.0510 h1        1 MOL      0.117356
     78 H34        -0.0790    2.1900    1.6540 h1        1 MOL      0.117356
     79 N8         -0.6620   -0.2620    0.1000 n         1 MOL     -0.544074
     80 C25        -0.5030   -1.2290   -0.9260 c3        1 MOL      0.088522
     81 C26         0.6440   -2.1960   -0.6060 c         1 MOL      0.336765
     82 O14         0.7490   -2.6580    0.5370 o         1 MOL     -0.535528
     83 C27        -1.8040   -1.9780   -1.1870 c3        1 MOL      0.148505
     84 C28        -2.9030   -1.0120   -1.5630 c3        1 MOL     -0.273495
     85 O15        -1.5920   -2.8210   -2.3380 oh        1 MOL     -0.596675
     86 H35        -0.8100   -0.6740    1.0170 hn        1 MOL      0.277785
     87 H36        -0.3150   -0.6680   -1.8360 h1        1 MOL      0.069536
     88 H37        -2.1080   -2.6300   -0.3650 h1        1 MOL      0.083980
     89 H38        -2.4860   -2.9820   -2.6650 ho        1 MOL      0.390761
     90 H39        -3.5570   -1.5230   -2.2700 hc        1 MOL      0.081700
     91 H40        -3.5300   -0.7130   -0.7240 hc        1 MOL      0.081700
     92 H41        -2.5870   -0.0200   -1.8980 hc        1 MOL      0.081700
     93 N9          1.4090   -2.5780   -1.5510 n         1 MOL      0.071745
     94 C29         2.5190   -3.5060   -1.3660 c3        1 MOL     -0.068095
     95 C30         3.7160   -2.7820   -0.5960 c         1 MOL      0.446282
     96 O16         4.4070   -3.4360    0.1710 o         1 MOL     -0.486868
     97 C31         2.9680   -4.1280   -2.7250 c3        1 MOL      0.194399
     98 C32         1.8340   -4.4700   -3.7150 c3        1 MOL     -0.054833
     99 C33         3.9090   -5.3350   -2.5940 c3        1 MOL     -0.348445
    100 C34         0.7020   -5.4510   -3.3240 c3        1 MOL     -0.220063
    101 H42         1.2870   -2.1110   -2.4380 hn        1 MOL      0.149613
    102 H43         2.2250   -4.3100   -0.7010 h1        1 MOL      0.081193
    103 H44         3.5120   -3.2560   -3.0950 hc        1 MOL     -0.080043
    104 H45         2.2570   -4.8690   -4.6350 hc        1 MOL      0.022038
    105 H46         1.2740   -3.5660   -3.9880 hc        1 MOL      0.022038
    106 H47         4.7950   -5.0660   -2.0180 hc        1 MOL      0.102593
    107 H48         3.3250   -6.1540   -2.1810 hc        1 MOL      0.102593
    108 H49         4.1840   -5.5350   -3.6250 hc        1 MOL      0.102593
    109 H50         0.1610   -5.0100   -2.4830 hc        1 MOL      0.062985
    110 H51         0.0270   -5.4790   -4.1740 hc        1 MOL      0.062985
    111 H52         1.1880   -6.4050   -3.1310 hc        1 MOL      0.062985
    112 N10         3.9190   -1.4590   -0.8180 n         1 MOL     -0.169336
    113 C35         4.8560   -0.4540   -0.1650 c3        1 MOL     -0.069526
    114 C36         5.3890    0.5330   -1.2110 c         1 MOL      0.399397
    115 O17         4.6800    1.0680   -2.1170 o         1 MOL     -0.492615
    116 C37         4.3770    0.2420    1.1030 c3        1 MOL      0.419065
    117 C38         2.9730    0.6930    0.9700 c3        1 MOL     -0.453318
    118 O18         4.3500   -0.6570    2.1090 oh        1 MOL     -0.577482
    119 H53         3.2530   -1.0050   -1.4250 hn        1 MOL      0.120716
    120 H54         5.6650   -1.0740    0.2410 h1        1 MOL      0.051799
    121 H55         5.1370    1.0040    1.2670 h1        1 MOL     -0.022762
    122 H56         4.4110   -0.1800    2.9400 ho        1 MOL      0.400974
    123 H57         2.2580   -0.1250    1.0220 hc        1 MOL      0.105427
    124 H58         2.6860    1.3270    1.8070 hc        1 MOL      0.105427
    125 H59         2.7430    1.2030    0.0390 hc        1 MOL      0.105427
    126 N11         6.7250    0.7690   -1.1950 n         1 MOL     -0.310352
    127 C39         7.4090    1.5930   -2.2210 c3        1 MOL     -0.203943
    128 C40         8.8280    1.2740   -2.3070 c         1 MOL      0.660203
    129 O19         9.3040    0.8630   -3.2960 o         1 MOL     -0.530286
    130 C41         7.0860    3.0550   -1.9580 c3        1 MOL      0.397861
    131 C42         7.6730    4.1260   -2.9300 c3        1 MOL     -0.422875
    132 O20         7.6050    3.4610   -0.7440 oh        1 MOL     -0.614969
    133 H60         7.3000    0.4640   -0.4180 hn        1 MOL      0.234752
    134 H61         6.9170    1.3000   -3.1440 h1        1 MOL      0.133737
    135 H62         6.0180    3.2410   -1.9610 h1        1 MOL      0.030845
    136 H63         6.8060    3.4270   -0.2090 ho        1 MOL      0.379081
    137 H64         8.7360    3.9890   -3.1270 hc        1 MOL      0.114500
    138 H65         7.0670    4.0740   -3.8400 hc        1 MOL      0.114500
    139 H66         7.4570    5.0970   -2.4700 hc        1 MOL      0.114500
    140 N12         9.5280    1.5220   -1.1670 n         1 MOL     -0.387188
    141 C43        10.8490    0.9180   -0.8910 c3        1 MOL     -0.200061
    142 C44        10.8360    0.4290    0.5760 c         1 MOL      0.779437
    143 O21        10.4320    1.1940    1.4350 o         1 MOL     -0.566429
    144 C45        11.9180    1.8830   -1.3380 c3        1 MOL     -0.233718
    145 C46        11.7960    3.2420   -0.6700 c3        1 MOL      0.217574
    146 C47        13.1420    4.0000   -0.8390 c3        1 MOL     -0.122479
    147 C48        13.1280    5.2600    0.0530 c3        1 MOL      0.087843
    148 N13        14.5120    5.7270    0.3290 n4        1 MOL     -0.139357
    149 H67         9.1120    1.9000   -0.3290 hn        1 MOL      0.235316
    150 H68        11.1150    0.0150   -1.4310 h1        1 MOL      0.085112
    151 H69        11.9280    2.0340   -2.4110 hc        1 MOL      0.104090
    152 H70        12.8190    1.3250   -1.0760 hc        1 MOL      0.104090
    153 H71        11.7940    3.1710    0.4130 hc        1 MOL      0.010925
    154 H72        10.9870    3.8670   -1.0480 hc        1 MOL      0.010925
    155 H73        13.2770    4.0740   -1.9200 hc        1 MOL      0.026096
    156 H74        13.9760    3.3970   -0.4990 hc        1 MOL      0.026096
    157 H75        12.5990    5.0570    0.9830 hx        1 MOL      0.049109
    158 H76        12.5870    6.0510   -0.4740 hx        1 MOL      0.049109
    159 H77        14.5210    6.5730    0.8820 hn        1 MOL      0.220613
    160 H78        15.1100    4.9990    0.7110 hn        1 MOL      0.220613
    161 H79        14.8960    5.9340   -0.5820 hn        1 MOL      0.220613
    162 N14        11.1960   -0.8210    0.8110 n         1 MOL     -0.769426
    163 C49        10.9680   -1.4820    2.0920 c3        1 MOL      0.457229
    164 C50         9.5210   -1.9580    2.3250 c         1 MOL      0.371208
    165 O22         8.9530   -1.4950    3.3400 o         1 MOL     -0.557207
    166 C51        11.9560   -2.6060    2.3190 c3        1 MOL     -0.287425
    167 C52        13.0980   -2.2050    3.2580 c3        1 MOL     -0.216067
    168 C53        14.1520   -3.2890    3.1650 c         1 MOL      0.701101
    169 O23        14.8470   -3.3650    2.1440 o         1 MOL     -0.657613
    170 O24        14.4030   -3.9490    4.2040 o         1 MOL     -0.657613
    171 H80        11.7070   -1.2560    0.0550 hn        1 MOL      0.399737
    172 H81        11.2070   -0.7300    2.8490 h1        1 MOL      0.004237
    173 H82        12.3580   -2.8000    1.3250 hc        1 MOL      0.089478
    174 H83        11.4170   -3.4710    2.7100 hc        1 MOL      0.089478
    175 H84        12.6590   -2.0720    4.2530 hc        1 MOL      0.067197
    176 H85        13.4920   -1.2090    3.0810 hc        1 MOL      0.067197
    177 N15         8.7930   -2.6970    1.4860 n         1 MOL     -0.366734
    178 C54         9.3540   -3.5860    0.4120 c3        1 MOL      0.092680
    179 H86         9.4930   -4.5920    0.8100 h1        1 MOL      0.017241
    180 H87         8.6620   -3.6210   -0.4300 h1        1 MOL      0.017241
    181 H88        10.3140   -3.1920    0.0780 h1        1 MOL      0.017241
    182 H89         7.8110   -2.7480    1.6910 hn        1 MOL      0.313928
    183 Ca1        -7.0220   -1.4650    2.1460 Ca        1 MOL      1.853071
    184 O25        -9.9420   -2.4320    2.7060 oh        1 MOL     -0.915158
    185 H90        -9.6810   -3.1400    2.1150 ho        1 MOL      0.441991
    186 H91       -10.4310   -1.8260    2.1640 ho        1 MOL      0.441991
    187 O26        -7.1880   -3.1720    4.3560 oh        1 MOL     -0.915158
    188 H92        -7.7920   -3.9030    4.4910 ho        1 MOL      0.441991
    189 H93        -7.1510   -2.7340    5.2070 ho        1 MOL      0.441991
    190 O27        -8.6150    0.0060    3.7310 oh        1 MOL     -0.915158
    191 H94        -9.4420   -0.4480    3.8700 ho        1 MOL      0.441991
    192 H95        -8.8510    0.7700    3.1990 ho        1 MOL      0.441991
    193 O28        -6.3020    1.0570    1.6690 oh        1 MOL     -0.915158
    194 H96        -6.5250    1.8280    2.1940 ho        1 MOL      0.441991
    195 H97        -5.4270    1.2450    1.3340 ho        1 MOL      0.441991
    196 O29        -5.4790   -0.4420    4.1790 oh        1 MOL     -0.915158
    197 H98        -5.8690    0.2140    4.7540 ho        1 MOL      0.441991
    198 H99        -4.8170   -0.8710    4.7260 ho        1 MOL      0.441991
    199 O30        -5.0190   -3.1540    1.8950 oh        1 MOL     -0.915158
    200 H100       -4.0890   -3.2710    1.6920 ho        1 MOL      0.441991
    201 H101       -5.3020   -3.9860    2.2640 ho        1 MOL      0.441991
@<TRIPOS>BOND
     1    1    2 1   
     2    1    4 1   
     3    1    5 1   
     4    1    6 1   
     5    2    3 2   
     6    2    7 1   
     7    7    8 1   
     8    7   15 1   
     9    8    9 1   
    10    8   11 1   
    11    8   16 1   
    12    9   10 2   
    13    9   19 1   
    14   11   12 1   
    15   11   17 1   
    16   11   18 1   
    17   12   13 1   
    18   12   14 1   
    19   19   20 1   
    20   19   28 1   
    21   20   21 1   
    22   20   23 1   
    23   20   29 1   
    24   21   22 2   
    25   21   41 1   
    26   23   24 1   
    27   23   30 1   
    28   23   31 1   
    29   24   25 1   
    30   24   32 1   
    31   24   33 1   
    32   25   26 1   
    33   25   34 1   
    34   25   35 1   
    35   26   27 1   
    36   26   36 1   
    37   26   37 1   
    38   27   38 1   
    39   27   39 1   
    40   27   40 1   
    41   41   42 1   
    42   41   49 1   
    43   42   43 1   
    44   42   45 1   
    45   42   50 1   
    46   43   44 2   
    47   43   53 1   
    48   45   46 1   
    49   45   51 1   
    50   45   52 1   
    51   46   47 1   
    52   46   48 1   
    53   53   54 1   
    54   53   57 1   
    55   54   55 1   
    56   54   58 1   
    57   54   59 1   
    58   55   56 2   
    59   55   60 1   
    60   60   61 1   
    61   60   68 1   
    62   61   62 1   
    63   61   64 1   
    64   61   69 1   
    65   62   63 2   
    66   62   72 1   
    67   64   65 1   
    68   64   70 1   
    69   64   71 1   
    70   65   66 1   
    71   65   67 1   
    72   72   73 1   
    73   72   76 1   
    74   73   74 1   
    75   73   77 1   
    76   73   78 1   
    77   74   75 2   
    78   74   79 1   
    79   79   80 1   
    80   79   86 1   
    81   80   81 1   
    82   80   83 1   
    83   80   87 1   
    84   81   82 2   
    85   81   93 1   
    86   83   84 1   
    87   83   85 1   
    88   83   88 1   
    89   84   90 1   
    90   84   91 1   
    91   84   92 1   
    92   85   89 1   
    93   93   94 1   
    94   93  101 1   
    95   94   95 1   
    96   94   97 1   
    97   94  102 1   
    98   95   96 2   
    99   95  112 1   
   100   97   98 1   
   101   97   99 1   
   102   97  103 1   
   103   98  100 1   
   104   98  104 1   
   105   98  105 1   
   106   99  106 1   
   107   99  107 1   
   108   99  108 1   
   109  100  109 1   
   110  100  110 1   
   111  100  111 1   
   112  112  113 1   
   113  112  119 1   
   114  113  114 1   
   115  113  116 1   
   116  113  120 1   
   117  114  115 2   
   118  114  126 1   
   119  116  117 1   
   120  116  118 1   
   121  116  121 1   
   122  117  123 1   
   123  117  124 1   
   124  117  125 1   
   125  118  122 1   
   126  126  127 1   
   127  126  133 1   
   128  127  128 1   
   129  127  130 1   
   130  127  134 1   
   131  128  129 2   
   132  128  140 1   
   133  130  131 1   
   134  130  132 1   
   135  130  135 1   
   136  131  137 1   
   137  131  138 1   
   138  131  139 1   
   139  132  136 1   
   140  140  141 1   
   141  140  149 1   
   142  141  142 1   
   143  141  144 1   
   144  141  150 1   
   145  142  143 2   
   146  142  162 1   
   147  144  145 1   
   148  144  151 1   
   149  144  152 1   
   150  145  146 1   
   151  145  153 1   
   152  145  154 1   
   153  146  147 1   
   154  146  155 1   
   155  146  156 1   
   156  147  148 1   
   157  147  157 1   
   158  147  158 1   
   159  148  159 1   
   160  148  160 1   
   161  148  161 1   
   162  162  163 1   
   163  162  171 1   
   164  163  164 1   
   165  163  166 1   
   166  163  172 1   
   167  164  165 2   
   168  164  177 1   
   169  166  167 1   
   170  166  173 1   
   171  166  174 1   
   172  167  168 1   
   173  167  175 1   
   174  167  176 1   
   175  168  169 1   
   176  168  170 1   
   177  177  178 1   
   178  177  182 1   
   179  178  179 1   
   180  178  180 1   
   181  178  181 1   
   182  184  185 1   
   183  184  186 1   
   184  187  188 1   
   185  187  189 1   
   186  190  191 1   
   187  190  192 1   
   188  193  194 1   
   189  193  195 1   
   190  196  197 1   
   191  196  198 1   
   192  199  200 1   
   193  199  201 1   
@<TRIPOS>SUBSTRUCTURE
     1 MOL         1 TEMP              0 ****  ****    0 ROOT
