@<TRIPOS>MOLECULE
MOL
  187   181     1     0     0
SMALL
resp


@<TRIPOS>ATOM
      1 C1          0.8640   -3.3900    3.8190 c3        1 MOL     -0.390393
      2 C2          2.1390   -2.8130    3.0970 c         1 MOL      0.479531
      3 O1          2.2000   -2.6180    1.9260 o         1 MOL     -0.430488
      4 H1          0.8260   -3.0170    4.8410 hc        1 MOL      0.107510
      5 H2         -0.0310   -3.0740    3.2840 hc        1 MOL      0.107510
      6 H3          0.9140   -4.4790    3.8310 hc        1 MOL      0.107510
      7 N1          3.1950   -2.7330    3.8650 n         1 MOL     -0.244405
      8 C3          4.5560   -2.4020    3.3460 c3        1 MOL     -0.100324
      9 C4          5.0690   -3.2460    2.2400 c         1 MOL      0.576081
     10 O2          5.8210   -2.6710    1.4180 o         1 MOL     -0.492375
     11 C5          5.4990   -2.3260    4.5060 c3        1 MOL     -0.230359
     12 C6          6.7570   -1.4470    4.2310 c         1 MOL      0.709456
     13 O3          7.8740   -1.8290    4.6320 o         1 MOL     -0.705589
     14 O4          6.5540   -0.2310    3.8110 o         1 MOL     -0.705589
     15 H4          3.1030   -2.8700    4.8630 hn        1 MOL      0.215348
     16 H5          4.4960   -1.4380    2.8550 h1        1 MOL      0.076525
     17 H6          5.9360   -3.3110    4.6940 hc        1 MOL      0.044072
     18 H7          5.0270   -1.9190    5.4030 hc        1 MOL      0.044072
     19 N2          4.6590   -4.4890    2.0820 n         1 MOL     -0.355593
     20 C7          5.0090   -5.3710    0.9870 c3        1 MOL      0.157000
     21 C8          4.7660   -4.8950   -0.4850 c         1 MOL      0.417071
     22 O5          5.6200   -5.1970   -1.3230 o         1 MOL     -0.489032
     23 C9          6.4330   -5.9630    1.2730 c3        1 MOL     -0.240994
     24 H8          4.1090   -4.8590    2.8430 hn        1 MOL      0.215804
     25 H9          4.3610   -6.2180    1.2290 h1        1 MOL      0.038058
     26 H10         6.6420   -6.8420    0.6740 hc        1 MOL      0.068808
     27 H11         7.1880   -5.2280    1.0070 hc        1 MOL      0.068808
     28 H12         6.5520   -6.2640    2.3180 hc        1 MOL      0.068808
     29 N3          3.7560   -4.0500   -0.7440 n         1 MOL     -0.329244
     30 C10         3.5890   -3.2970   -2.0420 c3        1 MOL     -0.094677
     31 C11         4.7620   -2.3540   -2.3860 c         1 MOL      0.596077
     32 O6          5.1740   -2.1840   -3.5510 o         1 MOL     -0.581968
     33 C12         3.2330   -4.3130   -3.1220 c3        1 MOL     -0.050329
     34 C13         2.0750   -5.2560   -2.7470 c         1 MOL      0.517519
     35 O7          2.3070   -6.4600   -2.5160 o         1 MOL     -0.648174
     36 O8          0.8930   -4.7890   -2.9240 o         1 MOL     -0.648174
     37 H13         3.2980   -3.7760    0.1100 hn        1 MOL      0.134928
     38 H14         2.7030   -2.6750   -2.0150 h1        1 MOL      0.130366
     39 H15         4.0920   -4.9360   -3.3810 hc        1 MOL      0.024944
     40 H16         2.8660   -3.7760   -3.9920 hc        1 MOL      0.024944
     41 N4          5.3220   -1.8110   -1.3170 n         1 MOL     -0.203140
     42 C14         6.4110   -0.8170   -1.2850 c3        1 MOL     -0.160488
     43 C15         6.0990    0.4480   -2.0460 c         1 MOL      0.573384
     44 O9          7.1040    1.1600   -2.1710 o         1 MOL     -0.574770
     45 H17         4.9510   -2.1100   -0.4340 hn        1 MOL      0.184862
     46 H18         7.3050   -1.1540   -1.8130 h1        1 MOL      0.108743
     47 H19         6.5600   -0.4560   -0.2650 h1        1 MOL      0.108743
     48 N5          4.8310    0.7140   -2.4390 n         1 MOL     -0.311088
     49 C16         4.3800    1.8600   -3.3140 c3        1 MOL     -0.016414
     50 C17         5.0240    3.2510   -2.9290 c         1 MOL      0.425376
     51 O10         5.1760    4.0870   -3.8130 o         1 MOL     -0.497526
     52 C18         2.8340    2.0460   -3.4190 c3        1 MOL     -0.391525
     53 C19         2.3480    0.8070   -4.1910 c         1 MOL      0.578706
     54 N6          2.6730    0.6700   -5.4410 n         1 MOL     -0.708491
     55 O11         1.6700   -0.0460   -3.6310 o         1 MOL     -0.487899
     56 H20         4.1350    0.0520   -2.1340 hn        1 MOL      0.200607
     57 H21         4.8050    1.6120   -4.2820 h1        1 MOL      0.085896
     58 H22         2.7660    2.9300   -4.0530 hc        1 MOL      0.176623
     59 H23         2.4380    2.1640   -2.4180 hc        1 MOL      0.176623
     60 H24         3.1900    1.3940   -5.9100 hn        1 MOL      0.347720
     61 H25         2.4170   -0.1840   -5.9170 hn        1 MOL      0.347720
     62 N7          5.3250    3.4250   -1.5990 n         1 MOL     -0.159314
     63 C20         5.5400    4.7330   -0.9190 c3        1 MOL     -0.321187
     64 C21         4.2160    5.5010   -0.7230 c         1 MOL      0.657939
     65 O12         3.3090    5.3770   -1.5450 o         1 MOL     -0.488410
     66 H26         5.0900    2.6900   -0.9460 hn        1 MOL      0.231907
     67 H27         6.2080    5.3420   -1.5190 h1        1 MOL      0.126216
     68 H28         5.9830    4.5780    0.0640 h1        1 MOL      0.126216
     69 N8          4.1260    6.3690    0.3000 n         1 MOL     -0.358770
     70 C22         3.0550    7.2840    0.6180 c3        1 MOL     -0.469716
     71 C23         1.6920    6.7200    1.0920 c         1 MOL      0.631221
     72 O13         0.6990    7.4270    1.1240 o         1 MOL     -0.563302
     73 C24         3.5080    8.3590    1.5910 c3        1 MOL      0.480471
     74 C25         3.7790    7.9920    3.0390 c3        1 MOL     -0.289105
     75 O14         4.6410    8.9170    1.0120 oh        1 MOL     -0.634534
     76 H29         4.8960    6.3160    0.9560 hn        1 MOL      0.234496
     77 H30         2.9400    7.8120   -0.3260 h1        1 MOL      0.202473
     78 H31         2.6690    9.0570    1.6620 h1        1 MOL      0.044246
     79 H32         5.3050    8.2360    0.9040 ho        1 MOL      0.382278
     80 H33         4.7330    7.4870    3.1960 hc        1 MOL      0.070013
     81 H34         3.9200    8.8630    3.6830 hc        1 MOL      0.070013
     82 H35         2.9640    7.4570    3.5180 hc        1 MOL      0.070013
     83 N9          1.7080    5.4480    1.4840 n         1 MOL     -0.255907
     84 C26         0.5390    4.5280    1.6650 c3        1 MOL     -0.175578
     85 C27         0.4890    3.4150    0.5820 c         1 MOL      0.701498
     86 O15         1.5160    3.0450   -0.0050 o         1 MOL     -0.533724
     87 C28         0.4570    3.9740    3.0680 c3        1 MOL      0.055457
     88 C29         1.5680    2.9520    3.3850 c3        1 MOL     -0.168066
     89 C30         0.4510    5.0500    4.2510 c3        1 MOL     -0.338702
     90 C31         1.3160    2.1030    4.6420 c3        1 MOL     -0.221384
     91 H36         2.5790    4.9360    1.3790 hn        1 MOL      0.175291
     92 H37        -0.3210    5.1700    1.4900 h1        1 MOL      0.107997
     93 H38        -0.5340    3.5300    3.1160 hc        1 MOL      0.068834
     94 H39         2.5410    3.4100    3.5860 hc        1 MOL      0.113887
     95 H40         1.6880    2.2040    2.5960 hc        1 MOL      0.113887
     96 H41        -0.0080    4.5890    5.1240 hc        1 MOL      0.093272
     97 H42         1.4690    5.3770    4.4710 hc        1 MOL      0.093272
     98 H43        -0.1680    5.8760    3.9260 hc        1 MOL      0.093272
     99 H44         2.0300    1.2780    4.6680 hc        1 MOL      0.071966
    100 H45         1.5540    2.7040    5.5220 hc        1 MOL      0.071966
    101 H46         0.2800    1.7780    4.6440 hc        1 MOL      0.071966
    102 N10        -0.7730    2.9100    0.3850 n         1 MOL     -0.774180
    103 C32        -1.0120    1.7400   -0.4860 c3        1 MOL      0.296041
    104 C33        -2.4360    1.7370   -1.1370 c         1 MOL      0.477703
    105 O16        -2.5530    1.2110   -2.2470 o         1 MOL     -0.519192
    106 C34        -0.7910    0.5400    0.4210 c3        1 MOL     -0.098538
    107 C35        -0.6740   -0.7340   -0.4630 c         1 MOL      0.798981
    108 O17         0.3140   -1.1160   -1.1080 o         1 MOL     -0.808635
    109 O18        -1.6560   -1.4940   -0.4320 o         1 MOL     -0.808635
    110 H47        -1.5430    3.3900    0.8090 hn        1 MOL      0.341710
    111 H48        -0.2640    1.7780   -1.2670 h1        1 MOL      0.057092
    112 H49        -1.6300    0.3460    1.0900 hc        1 MOL      0.026805
    113 H50         0.1750    0.5820    0.9260 hc        1 MOL      0.026805
    114 N11        -3.4770    2.3780   -0.5370 n         1 MOL     -0.426151
    115 C36        -4.8130    2.3520   -1.0830 c3        1 MOL      0.345703
    116 C37        -5.8220    1.7630   -0.0940 c         1 MOL      0.038201
    117 O19        -5.8450    2.2310    1.0670 o         1 MOL     -0.421938
    118 C38        -5.3060    3.7400   -1.5180 c3        1 MOL     -0.243386
    119 C39        -6.7090    3.6820   -2.1520 ca        1 MOL      0.013696
    120 C40        -6.8370    3.3490   -3.5000 ca        1 MOL     -0.093800
    121 C41        -7.9110    3.8260   -1.3950 ca        1 MOL     -0.093800
    122 C42        -8.0430    3.0240   -4.1360 ca        1 MOL     -0.175479
    123 C43        -9.1600    3.5610   -1.9660 ca        1 MOL     -0.175479
    124 C44        -9.1810    3.1580   -3.3260 ca        1 MOL     -0.073446
    125 H51        -3.1930    3.0970    0.1220 hn        1 MOL      0.248956
    126 H52        -4.7980    1.6610   -1.9320 h1        1 MOL     -0.023124
    127 H53        -4.6530    4.3000   -2.1740 hc        1 MOL      0.106678
    128 H54        -5.4730    4.3640   -0.6370 hc        1 MOL      0.106678
    129 H55        -5.9690    3.3480   -4.1520 ha        1 MOL      0.114804
    130 H56        -7.8390    4.2470   -0.3960 ha        1 MOL      0.114804
    131 H57        -8.2080    2.8180   -5.1770 ha        1 MOL      0.136697
    132 H58       -10.0980    3.5860   -1.4340 ha        1 MOL      0.136697
    133 H59       -10.1360    2.9380   -3.7610 ha        1 MOL      0.092676
    134 N12        -6.6430    0.7320   -0.5110 n         1 MOL      0.192145
    135 C45        -7.7700    0.2880    0.2890 c3        1 MOL      0.063970
    136 C46        -7.4580   -0.5320    1.5350 c         1 MOL      0.414021
    137 O20        -8.2200   -0.4820    2.4620 o         1 MOL     -0.526060
    138 C47        -8.6630   -0.6560   -0.6230 c3        1 MOL     -0.089698
    139 C48        -8.1390   -0.2620   -2.0370 c3        1 MOL     -0.043411
    140 C49        -6.6830    0.1280   -1.8690 c3        1 MOL     -0.150500
    141 H60        -8.3770    1.0990    0.6810 h1        1 MOL      0.040241
    142 H61        -8.5770   -1.7230   -0.4260 hc        1 MOL      0.054561
    143 H62        -9.7060   -0.3260   -0.6210 hc        1 MOL      0.054561
    144 H63        -8.2070   -1.1580   -2.6510 hc        1 MOL      0.023885
    145 H64        -8.6880    0.6100   -2.4170 hc        1 MOL      0.023885
    146 H65        -6.0980   -0.7800   -2.0350 h1        1 MOL      0.079423
    147 H66        -6.3900    0.7980   -2.6840 h1        1 MOL      0.079423
    148 N13        -6.3230   -1.2360    1.5280 n         1 MOL     -0.241898
    149 C50        -5.8380   -1.9920    2.7060 c3        1 MOL     -0.153431
    150 C51        -5.1750   -1.0590    3.7780 c         1 MOL      0.522438
    151 O21        -4.7320   -1.4740    4.8130 o         1 MOL     -0.508012
    152 C52        -4.8060   -2.9460    2.1960 c3        1 MOL      0.025835
    153 C53        -4.5580   -4.2390    3.0210 c3        1 MOL     -0.201827
    154 C54        -5.7340   -5.2140    3.0320 c         1 MOL      0.699536
    155 O22        -5.4830   -6.3700    2.5940 o         1 MOL     -0.732347
    156 O23        -6.8720   -4.9420    3.5350 o         1 MOL     -0.732347
    157 H67        -5.7280   -1.2250    0.7090 hn        1 MOL      0.138697
    158 H68        -6.6780   -2.4960    3.1700 h1        1 MOL      0.165781
    159 H69        -3.8020   -2.5210    2.1490 hc        1 MOL      0.018451
    160 H70        -5.1410   -3.3040    1.2230 hc        1 MOL      0.018451
    161 H71        -4.2650   -4.1040    4.0590 hc        1 MOL      0.037689
    162 H72        -3.6890   -4.7290    2.5740 hc        1 MOL      0.037689
    163 N14        -5.1990    0.2880    3.5300 n         1 MOL     -0.253259
    164 C55        -4.9420    1.2990    4.5250 c3        1 MOL     -0.126297
    165 H73        -4.7650    0.8220    5.4890 h1        1 MOL      0.063327
    166 H74        -4.0620    1.8760    4.2390 h1        1 MOL      0.063327
    167 H75        -5.8030    1.9620    4.6000 h1        1 MOL      0.063327
    168 H76        -5.6680    0.6790    2.7280 hn        1 MOL      0.184099
    169 Ca1        -0.9880   -3.5270   -1.8950 Ca        1 MOL      1.781632
    170 O24         0.7840   -4.0740    0.2490 oh        1 MOL     -0.842000
    171 H77         1.1830   -4.8860    0.5600 ho        1 MOL      0.406723
    172 H78         1.1490   -3.3920    0.8110 ho        1 MOL      0.406723
    173 O25        -1.3350   -6.1190   -1.3020 oh        1 MOL     -0.842000
    174 O26        -3.5620   -4.3850   -0.8280 oh        1 MOL     -0.842000
    175 H79        -0.7670   -6.2700   -0.5550 ho        1 MOL      0.406723
    176 H80        -3.3960   -5.3190   -0.7710 ho        1 MOL      0.406723
    177 H81        -1.2430   -6.9010   -1.8380 ho        1 MOL      0.406723
    178 H82        -4.5190   -4.3140   -0.8110 ho        1 MOL      0.406723
    179 O27        -1.7060   -4.6760   -4.1860 oh        1 MOL     -0.842000
    180 H83        -1.0180   -5.3360   -4.2870 ho        1 MOL      0.406723
    181 H84        -2.3770   -4.9160   -4.8200 ho        1 MOL      0.406723
    182 O28        -2.7660   -1.5480   -2.9040 oh        1 MOL     -0.842000
    183 H85        -3.6230   -1.6350   -2.4670 ho        1 MOL      0.406723
    184 H86        -2.5410   -0.6170   -2.8010 ho        1 MOL      0.406723
    185 O29         0.1190   -2.0960   -3.8970 oh        1 MOL     -0.842000
    186 H87         0.4230   -2.3500   -4.7650 ho        1 MOL      0.406723
    187 H88         0.6880   -1.3760   -3.6370 ho        1 MOL      0.406723
@<TRIPOS>BOND
     1    1    2 1   
     2    1    4 1   
     3    1    5 1   
     4    1    6 1   
     5    2    3 2   
     6    2    7 1   
     7    7    8 1   
     8    7   15 1   
     9    8    9 1   
    10    8   11 1   
    11    8   16 1   
    12    9   10 2   
    13    9   19 1   
    14   11   12 1   
    15   11   17 1   
    16   11   18 1   
    17   12   13 1   
    18   12   14 1   
    19   19   20 1   
    20   19   24 1   
    21   20   21 1   
    22   20   23 1   
    23   20   25 1   
    24   21   22 2   
    25   21   29 1   
    26   23   26 1   
    27   23   27 1   
    28   23   28 1   
    29   29   30 1   
    30   29   37 1   
    31   30   31 1   
    32   30   33 1   
    33   30   38 1   
    34   31   32 2   
    35   31   41 1   
    36   33   34 1   
    37   33   39 1   
    38   33   40 1   
    39   34   35 1   
    40   34   36 1   
    41   41   42 1   
    42   41   45 1   
    43   42   43 1   
    44   42   46 1   
    45   42   47 1   
    46   43   44 2   
    47   43   48 1   
    48   48   49 1   
    49   48   56 1   
    50   49   50 1   
    51   49   52 1   
    52   49   57 1   
    53   50   51 2   
    54   50   62 1   
    55   52   53 1   
    56   52   58 1   
    57   52   59 1   
    58   53   54 1   
    59   53   55 2   
    60   54   60 1   
    61   54   61 1   
    62   62   63 1   
    63   62   66 1   
    64   63   64 1   
    65   63   67 1   
    66   63   68 1   
    67   64   65 2   
    68   64   69 1   
    69   69   70 1   
    70   69   76 1   
    71   70   71 1   
    72   70   73 1   
    73   70   77 1   
    74   71   72 2   
    75   71   83 1   
    76   73   74 1   
    77   73   75 1   
    78   73   78 1   
    79   74   80 1   
    80   74   81 1   
    81   74   82 1   
    82   75   79 1   
    83   83   84 1   
    84   83   91 1   
    85   84   85 1   
    86   84   87 1   
    87   84   92 1   
    88   85   86 2   
    89   85  102 1   
    90   87   88 1   
    91   87   89 1   
    92   87   93 1   
    93   88   90 1   
    94   88   94 1   
    95   88   95 1   
    96   89   96 1   
    97   89   97 1   
    98   89   98 1   
    99   90   99 1   
   100   90  100 1   
   101   90  101 1   
   102  102  103 1   
   103  102  110 1   
   104  103  104 1   
   105  103  106 1   
   106  103  111 1   
   107  104  105 2   
   108  104  114 1   
   109  106  107 1   
   110  106  112 1   
   111  106  113 1   
   112  107  108 1   
   113  107  109 1   
   114  114  115 1   
   115  114  125 1   
   116  115  116 1   
   117  115  118 1   
   118  115  126 1   
   119  116  117 2   
   120  116  134 1   
   121  118  119 1   
   122  118  127 1   
   123  118  128 1   
   124  119  120 ar  
   125  119  121 ar  
   126  120  122 ar  
   127  120  129 1   
   128  121  123 ar  
   129  121  130 1   
   130  122  124 ar  
   131  122  131 1   
   132  123  124 ar  
   133  123  132 1   
   134  124  133 1   
   135  134  135 1   
   136  134  140 1   
   137  135  136 1   
   138  135  138 1   
   139  135  141 1   
   140  136  137 2   
   141  136  148 1   
   142  138  139 1   
   143  138  142 1   
   144  138  143 1   
   145  139  140 1   
   146  139  144 1   
   147  139  145 1   
   148  140  146 1   
   149  140  147 1   
   150  148  149 1   
   151  148  157 1   
   152  149  150 1   
   153  149  152 1   
   154  149  158 1   
   155  150  151 2   
   156  150  163 1   
   157  152  153 1   
   158  152  159 1   
   159  152  160 1   
   160  153  154 1   
   161  153  161 1   
   162  153  162 1   
   163  154  155 1   
   164  154  156 1   
   165  163  164 1   
   166  163  168 1   
   167  164  165 1   
   168  164  166 1   
   169  164  167 1   
   170  170  171 1   
   171  170  172 1   
   172  173  175 1   
   173  173  177 1   
   174  174  176 1   
   175  174  178 1   
   176  179  180 1   
   177  179  181 1   
   178  182  183 1   
   179  182  184 1   
   180  185  186 1   
   181  185  187 1   
@<TRIPOS>SUBSTRUCTURE
     1 MOL         1 TEMP              0 ****  ****    0 ROOT
