@<TRIPOS>MOLECULE
MOL
  195   189     1     0     0
SMALL
resp


@<TRIPOS>ATOM
      1 C1         -6.8080   -4.1720    3.8100 c3        1 MOL     -0.384091
      2 C2         -6.0720   -3.1840    2.8850 c         1 MOL      0.677048
      3 O1         -5.3850   -3.6070    1.8640 o         1 MOL     -0.609298
      4 H1         -6.3310   -5.1500    3.7500 hc        1 MOL      0.104671
      5 H2         -6.7650   -3.8090    4.8370 hc        1 MOL      0.104671
      6 H3         -7.8490   -4.2560    3.4980 hc        1 MOL      0.104671
      7 N1         -6.0140   -1.8890    3.1500 n         1 MOL     -0.476986
      8 C3         -5.4260   -0.8090    2.3220 c3        1 MOL      0.246735
      9 C4         -3.9600   -0.8730    2.0590 c         1 MOL      0.044615
     10 O2         -3.5500   -0.0570    1.2070 o         1 MOL     -0.247694
     11 C5         -5.8400    0.5530    2.8330 c3        1 MOL     -0.023664
     12 C6         -7.3730    0.7540    2.6890 c         1 MOL      0.695696
     13 O3         -8.0670    0.0250    3.4500 o         1 MOL     -0.700288
     14 O4         -7.8380    1.4360    1.8090 o         1 MOL     -0.700288
     15 H4         -6.5570   -1.5980    3.9450 hn        1 MOL      0.237525
     16 H5         -5.8740   -1.0070    1.3440 h1        1 MOL      0.121983
     17 H6         -5.3850    1.3230    2.2140 hc        1 MOL     -0.065086
     18 H7         -5.6860    0.6910    3.8960 hc        1 MOL     -0.065086
     19 N2         -3.2510   -1.8950    2.5740 n         1 MOL     -0.001854
     20 C7         -1.7670   -2.0560    2.5490 c3        1 MOL      0.126755
     21 C8         -1.2750   -3.0540    1.5020 c         1 MOL      0.375244
     22 O5         -1.7120   -4.2040    1.5420 o         1 MOL     -0.512531
     23 C9         -1.1950   -2.4110    3.9640 c3        1 MOL     -0.092108
     24 C10        -1.3810   -1.2220    4.8740 c3        1 MOL      0.017482
     25 C11        -0.8250   -1.3700    6.2810 c3        1 MOL     -0.140177
     26 C12        -0.9080   -0.0770    7.1250 c3        1 MOL      0.167136
     27 N3          0.1610    0.0770    8.1780 n4        1 MOL     -0.415750
     28 H8         -3.7760   -2.6220    3.0310 hn        1 MOL      0.117617
     29 H9         -1.4580   -1.1000    2.1310 h1        1 MOL     -0.081418
     30 H10        -0.1320   -2.5890    3.8050 hc        1 MOL      0.071463
     31 H11        -1.5210   -3.3770    4.3410 hc        1 MOL      0.071463
     32 H12        -2.4560   -1.0900    4.9140 hc        1 MOL      0.011839
     33 H13        -1.0900   -0.2610    4.4310 hc        1 MOL      0.011839
     34 H14         0.2080   -1.7120    6.2770 hc        1 MOL      0.049779
     35 H15        -1.4430   -2.1270    6.7580 hc        1 MOL      0.049779
     36 H16        -1.8640   -0.0620    7.6380 hx        1 MOL      0.064590
     37 H17        -0.9220    0.8350    6.5330 hx        1 MOL      0.064590
     38 H18         0.1890    0.9580    8.6760 hn        1 MOL      0.337557
     39 H19         0.1730   -0.6690    8.8530 hn        1 MOL      0.337557
     40 H20         1.0460   -0.0640    7.6930 hn        1 MOL      0.337557
     41 N4         -0.3330   -2.8200    0.5560 n         1 MOL     -0.097257
     42 C13         0.5120   -1.6510    0.3510 c3        1 MOL     -0.122437
     43 C14         1.0340   -0.9230    1.5640 c         1 MOL      0.582885
     44 O6          0.4610    0.0590    1.9660 o         1 MOL     -0.529457
     45 C15        -0.1290   -0.6500   -0.6720 c3        1 MOL     -0.429914
     46 C16        -0.2290   -1.2360   -2.0520 c         1 MOL      0.734443
     47 O7          0.0260   -2.4420   -2.3230 o         1 MOL     -0.673641
     48 O8         -0.4140   -0.3970   -2.9940 o         1 MOL     -0.673641
     49 H21        -0.1130   -3.5850   -0.0610 hn        1 MOL      0.096154
     50 H22         1.3710   -2.1150   -0.1370 h1        1 MOL      0.033846
     51 H23         0.4790    0.2590   -0.7190 hc        1 MOL      0.186945
     52 H24        -1.1370   -0.4130   -0.3160 hc        1 MOL      0.186945
     53 N5          2.1170   -1.3550    2.2050 n         1 MOL     -0.489803
     54 C17         2.9080   -2.6220    1.9430 c3        1 MOL      0.148011
     55 C18         3.8400   -2.7690    3.1540 c         1 MOL      0.440459
     56 O9          3.4000   -2.5560    4.3070 o         1 MOL     -0.569560
     57 H25         2.4430   -0.6790    2.8860 hn        1 MOL      0.300197
     58 H26         3.4790   -2.4790    1.0320 h1        1 MOL      0.029411
     59 H27         2.2510   -3.4870    1.9310 h1        1 MOL      0.029411
     60 N6          4.9840   -3.3390    2.9820 n         1 MOL     -0.345042
     61 C19         5.6240   -3.7980    1.7350 c3        1 MOL      0.017730
     62 C20         6.2570   -2.7100    0.8840 c         1 MOL      0.669864
     63 O10         6.7670   -1.6810    1.2980 o         1 MOL     -0.492899
     64 C21         6.6600   -4.8710    2.0990 c3        1 MOL     -0.016706
     65 C22         7.5670   -4.4610    3.1820 c         1 MOL      0.650676
     66 O11         8.5340   -3.8030    2.7820 o         1 MOL     -0.679450
     67 O12         7.1660   -4.6930    4.3510 o         1 MOL     -0.679450
     68 H28         5.4840   -3.4390    3.8530 hn        1 MOL      0.278747
     69 H29         4.8230   -4.2210    1.1280 h1        1 MOL     -0.024003
     70 H30         7.1990   -5.1290    1.1850 hc        1 MOL     -0.029066
     71 H31         6.0820   -5.7590    2.3710 hc        1 MOL     -0.029066
     72 N7          6.2200   -2.9380   -0.4180 n         1 MOL     -0.395907
     73 C23         7.1780   -2.3560   -1.3180 c3        1 MOL     -0.163491
     74 C24         6.8730   -0.9440   -1.7650 c         1 MOL      0.538286
     75 O13         7.4170   -0.5170   -2.7780 o         1 MOL     -0.576941
     76 H32         5.5850   -3.6160   -0.7950 hn        1 MOL      0.212419
     77 H33         7.2190   -2.9120   -2.2520 h1        1 MOL      0.121593
     78 H34         8.1860   -2.5170   -0.9190 h1        1 MOL      0.121593
     79 N8          5.9240   -0.2470   -1.1990 n         1 MOL     -0.369698
     80 C25         5.4580    1.0950   -1.6500 c3        1 MOL      0.387961
     81 C26         5.5260    2.1520   -0.6080 c         1 MOL      0.432233
     82 O14         5.8780    1.8800    0.5630 o         1 MOL     -0.488130
     83 C27         4.0940    1.1010   -2.3870 c3        1 MOL     -0.059606
     84 C28         3.0740    0.3400   -1.5440 c3        1 MOL      0.155871
     85 O15         4.1870    0.4720   -3.5890 oh        1 MOL     -0.612749
     86 H35         5.6490   -0.4930   -0.2600 hn        1 MOL      0.155561
     87 H36         6.1990    1.3900   -2.3940 h1        1 MOL      0.034682
     88 H37         3.8350    2.1420   -2.5780 h1        1 MOL      0.074182
     89 H38         3.3640    0.4690   -4.0730 ho        1 MOL      0.440309
     90 H39         3.4830   -0.6350   -1.2580 hc        1 MOL     -0.031327
     91 H40         2.8940    0.9340   -0.6520 hc        1 MOL     -0.031327
     92 H41         2.1550    0.1470   -2.1090 hc        1 MOL     -0.031327
     93 N9          5.2890    3.4060   -0.9720 n         1 MOL     -0.509510
     94 C29         5.4240    4.5080    0.0510 c3        1 MOL     -0.117309
     95 C30         4.1430    5.2970    0.3120 c         1 MOL      0.428802
     96 O16         4.0930    6.1660    1.2240 o         1 MOL     -0.546404
     97 C31         6.6480    5.4140   -0.2330 c3        1 MOL      0.146724
     98 C32         6.6580    6.0560   -1.6030 c3        1 MOL      0.119354
     99 C33         7.8590    4.5810    0.1580 c3        1 MOL     -0.297286
    100 C34         7.7820    7.1440   -1.6810 c3        1 MOL     -0.169099
    101 H42         4.9620    3.5870   -1.9160 hn        1 MOL      0.284086
    102 H43         5.5550    4.0750    1.0470 h1        1 MOL      0.178388
    103 H44         6.5770    6.2450    0.4780 hc        1 MOL      0.017316
    104 H45         5.6910    6.4830   -1.8670 hc        1 MOL     -0.029181
    105 H46         6.9310    5.2890   -2.3250 hc        1 MOL     -0.029181
    106 H47         7.9590    3.6880   -0.4600 hc        1 MOL      0.085999
    107 H48         8.7030    5.2680    0.1230 hc        1 MOL      0.085999
    108 H49         7.7140    4.1770    1.1620 hc        1 MOL      0.085999
    109 H50         7.7030    7.8700   -0.8680 hc        1 MOL      0.038079
    110 H51         8.7900    6.7350   -1.6970 hc        1 MOL      0.038079
    111 H52         7.7010    7.6520   -2.6360 hc        1 MOL      0.038079
    112 N10         3.0110    4.8860   -0.2750 n         1 MOL     -0.182977
    113 C35         1.5940    5.2450    0.1050 c3        1 MOL     -0.151239
    114 C36         0.6770    4.0400    0.0720 c         1 MOL      0.552749
    115 O17         0.7440    3.2750   -0.9020 o         1 MOL     -0.573181
    116 C37         0.9100    6.3300   -0.7910 c3        1 MOL      0.505463
    117 C38         1.2510    6.2320   -2.2810 c3        1 MOL     -0.464999
    118 O18         1.3900    7.6200   -0.4200 oh        1 MOL     -0.701500
    119 H53         3.1120    4.2310   -1.0290 hn        1 MOL      0.161400
    120 H54         1.6100    5.5060    1.1620 h1        1 MOL      0.115420
    121 H55        -0.1520    6.3040   -0.5840 h1        1 MOL      0.024940
    122 H56         2.1230    7.8990   -0.9800 ho        1 MOL      0.418930
    123 H57         0.6270    6.9430   -2.8190 hc        1 MOL      0.111172
    124 H58         2.2990    6.5010   -2.4420 hc        1 MOL      0.111172
    125 H59         1.0680    5.2160   -2.6080 hc        1 MOL      0.111172
    126 N11        -0.2350    3.8840    0.9770 n         1 MOL     -0.499614
    127 C39        -1.2250    2.7730    0.9950 c3        1 MOL      0.027446
    128 C40        -2.3680    3.0800    0.0400 c         1 MOL      0.508648
    129 O19        -2.5180    4.2690   -0.2720 o         1 MOL     -0.554437
    130 C41        -1.8190    2.5610    2.3950 c3        1 MOL      0.328419
    131 C42        -2.5620    3.6710    3.0420 c3        1 MOL     -0.324922
    132 O20        -0.7840    2.3410    3.2250 oh        1 MOL     -0.591338
    133 H60        -0.2770    4.5530    1.7280 hn        1 MOL      0.298904
    134 H61        -0.7220    1.8880    0.6120 h1        1 MOL      0.159502
    135 H62        -2.4340    1.6560    2.3680 h1        1 MOL      0.115642
    136 H63        -0.2110    1.7580    2.7260 ho        1 MOL      0.328308
    137 H64        -3.3480    4.1000    2.4260 hc        1 MOL      0.079754
    138 H65        -3.0200    3.2660    3.9370 hc        1 MOL      0.079754
    139 H66        -1.9330    4.5300    3.2580 hc        1 MOL      0.079754
    140 N12        -3.2720    2.1380   -0.3320 n         1 MOL     -0.073182
    141 C43        -4.2990    2.2280   -1.4220 c3        1 MOL     -0.054595
    142 C44        -4.7180    0.9130   -2.0930 c         1 MOL      0.577165
    143 O21        -5.4890    0.9350   -3.0440 o         1 MOL     -0.603508
    144 C45        -5.5650    2.8290   -0.8300 c3        1 MOL      0.014182
    145 C46        -6.3720    3.7000   -1.8180 c3        1 MOL     -0.133299
    146 C47        -7.3050    4.7090   -1.1090 c3        1 MOL     -0.054269
    147 C48        -8.0860    5.4930   -2.1100 c3        1 MOL      0.257219
    148 N13        -9.0160    6.4260   -1.4030 n4        1 MOL     -0.344413
    149 H67        -3.0350    1.2350    0.0610 hn        1 MOL     -0.306085
    150 H68        -3.9620    2.8550   -2.2550 h1        1 MOL      0.067753
    151 H69        -5.2450    3.5660   -0.0850 hc        1 MOL      0.048718
    152 H70        -6.1930    2.0620   -0.3630 hc        1 MOL      0.048718
    153 H71        -6.9790    3.0230   -2.4110 hc        1 MOL      0.072246
    154 H72        -5.7130    4.2260   -2.4990 hc        1 MOL      0.072246
    155 H73        -6.7510    5.4640   -0.5520 hc        1 MOL      0.031163
    156 H74        -8.0470    4.2060   -0.4830 hc        1 MOL      0.031163
    157 H75        -8.6820    4.8850   -2.7940 hx        1 MOL      0.004194
    158 H76        -7.3710    6.0880   -2.6780 hx        1 MOL      0.004194
    159 H77        -9.3650    6.0660   -0.5290 hn        1 MOL      0.310674
    160 H78        -8.4280    7.1920   -1.1150 hn        1 MOL      0.310674
    161 H79        -9.7450    6.6850   -2.0550 hn        1 MOL      0.310674
    162 N14        -4.1860   -0.1950   -1.6360 n         1 MOL     -0.026819
    163 C49        -4.3760   -1.4980   -2.2230 c3        1 MOL     -1.093990
    164 C50        -5.7980   -1.9560   -2.5800 c         1 MOL      0.803704
    165 O22        -6.7250   -2.0670   -1.7760 o         1 MOL     -0.570415
    166 C51        -3.7940   -2.5330   -1.3230 c3        1 MOL      1.013020
    167 C52        -3.4440   -3.9540   -1.9190 c3        1 MOL     -0.984312
    168 C53        -2.7510   -3.9890   -3.3270 c         1 MOL      1.097353
    169 O23        -3.1920   -3.3420   -4.3010 o         1 MOL     -0.861228
    170 O24        -1.7070   -4.6870   -3.3100 o         1 MOL     -0.861228
    171 H80        -3.5770   -0.1130   -0.8320 hn        1 MOL      0.205368
    172 H81        -3.7960   -1.5250   -3.1450 h1        1 MOL      0.320276
    173 H82        -4.2990   -2.6140   -0.3590 hc        1 MOL     -0.115060
    174 H83        -2.8360   -2.0640   -1.0570 hc        1 MOL     -0.115060
    175 H84        -4.4220   -4.4290   -2.0390 hc        1 MOL      0.199182
    176 H85        -2.8950   -4.5160   -1.1600 hc        1 MOL      0.199182
    177 N15        -5.8910   -2.2800   -3.8390 n         1 MOL     -0.437817
    178 C54        -7.1460   -2.9150   -4.4330 c3        1 MOL     -0.091564
    179 H86        -7.0310   -3.9990   -4.4500 h1        1 MOL      0.065732
    180 H87        -8.0110   -2.6510   -3.8240 h1        1 MOL      0.065732
    181 H88        -7.2920   -2.5500   -5.4500 h1        1 MOL      0.065732
    182 H89        -5.0620   -2.1730   -4.4060 hn        1 MOL      0.418475
    183 Ca1         0.8560   -4.4140   -3.6520 Ca        1 MOL      1.751658
    184 O25         3.1200   -2.9180   -3.6490 oh        1 MOL     -0.882442
    185 H90         3.7850   -3.4720   -3.2400 ho        1 MOL      0.439360
    186 H91         3.5450   -2.5640   -4.4280 ho        1 MOL      0.439360
    187 O26         0.4850   -2.3510   -5.3100 oh        1 MOL     -0.882442
    188 H92        -0.4080   -2.3450   -5.6600 ho        1 MOL      0.439360
    189 H93         0.7240   -1.4370   -5.2280 ho        1 MOL      0.439360
    190 O27         2.7330   -5.0340   -5.5110 oh        1 MOL     -0.882442
    191 H94         2.2780   -4.6130   -6.2450 ho        1 MOL      0.439360
    192 H95         3.6190   -5.1770   -5.8450 ho        1 MOL      0.439360
    193 O28        -0.0990   -5.0170   -6.0780 oh        1 MOL     -0.882442
    194 H96        -0.6640   -4.9140   -6.8510 ho        1 MOL      0.439360
    195 H97        -0.0590   -5.9720   -5.9320 ho        1 MOL      0.439360
@<TRIPOS>BOND
     1    1    2 1   
     2    1    4 1   
     3    1    5 1   
     4    1    6 1   
     5    2    3 2   
     6    2    7 1   
     7    7    8 1   
     8    7   15 1   
     9    8    9 1   
    10    8   11 1   
    11    8   16 1   
    12    9   10 2   
    13    9   19 1   
    14   11   12 1   
    15   11   17 1   
    16   11   18 1   
    17   12   13 1   
    18   12   14 1   
    19   19   20 1   
    20   19   28 1   
    21   20   21 1   
    22   20   23 1   
    23   20   29 1   
    24   21   22 2   
    25   21   41 1   
    26   23   24 1   
    27   23   30 1   
    28   23   31 1   
    29   24   25 1   
    30   24   32 1   
    31   24   33 1   
    32   25   26 1   
    33   25   34 1   
    34   25   35 1   
    35   26   27 1   
    36   26   36 1   
    37   26   37 1   
    38   27   38 1   
    39   27   39 1   
    40   27   40 1   
    41   41   42 1   
    42   41   49 1   
    43   42   43 1   
    44   42   45 1   
    45   42   50 1   
    46   43   44 2   
    47   43   53 1   
    48   45   46 1   
    49   45   51 1   
    50   45   52 1   
    51   46   47 1   
    52   46   48 1   
    53   53   54 1   
    54   53   57 1   
    55   54   55 1   
    56   54   58 1   
    57   54   59 1   
    58   55   56 2   
    59   55   60 1   
    60   60   61 1   
    61   60   68 1   
    62   61   62 1   
    63   61   64 1   
    64   61   69 1   
    65   62   63 2   
    66   62   72 1   
    67   64   65 1   
    68   64   70 1   
    69   64   71 1   
    70   65   66 1   
    71   65   67 1   
    72   72   73 1   
    73   72   76 1   
    74   73   74 1   
    75   73   77 1   
    76   73   78 1   
    77   74   75 2   
    78   74   79 1   
    79   79   80 1   
    80   79   86 1   
    81   80   81 1   
    82   80   83 1   
    83   80   87 1   
    84   81   82 2   
    85   81   93 1   
    86   83   84 1   
    87   83   85 1   
    88   83   88 1   
    89   84   90 1   
    90   84   91 1   
    91   84   92 1   
    92   85   89 1   
    93   93   94 1   
    94   93  101 1   
    95   94   95 1   
    96   94   97 1   
    97   94  102 1   
    98   95   96 2   
    99   95  112 1   
   100   97   98 1   
   101   97   99 1   
   102   97  103 1   
   103   98  100 1   
   104   98  104 1   
   105   98  105 1   
   106   99  106 1   
   107   99  107 1   
   108   99  108 1   
   109  100  109 1   
   110  100  110 1   
   111  100  111 1   
   112  112  113 1   
   113  112  119 1   
   114  113  114 1   
   115  113  116 1   
   116  113  120 1   
   117  114  115 2   
   118  114  126 1   
   119  116  117 1   
   120  116  118 1   
   121  116  121 1   
   122  117  123 1   
   123  117  124 1   
   124  117  125 1   
   125  118  122 1   
   126  126  127 1   
   127  126  133 1   
   128  127  128 1   
   129  127  130 1   
   130  127  134 1   
   131  128  129 2   
   132  128  140 1   
   133  130  131 1   
   134  130  132 1   
   135  130  135 1   
   136  131  137 1   
   137  131  138 1   
   138  131  139 1   
   139  132  136 1   
   140  140  141 1   
   141  140  149 1   
   142  141  142 1   
   143  141  144 1   
   144  141  150 1   
   145  142  143 2   
   146  142  162 1   
   147  144  145 1   
   148  144  151 1   
   149  144  152 1   
   150  145  146 1   
   151  145  153 1   
   152  145  154 1   
   153  146  147 1   
   154  146  155 1   
   155  146  156 1   
   156  147  148 1   
   157  147  157 1   
   158  147  158 1   
   159  148  159 1   
   160  148  160 1   
   161  148  161 1   
   162  162  163 1   
   163  162  171 1   
   164  163  164 1   
   165  163  166 1   
   166  163  172 1   
   167  164  165 2   
   168  164  177 1   
   169  166  167 1   
   170  166  173 1   
   171  166  174 1   
   172  167  168 1   
   173  167  175 1   
   174  167  176 1   
   175  168  169 1   
   176  168  170 1   
   177  177  178 1   
   178  177  182 1   
   179  178  179 1   
   180  178  180 1   
   181  178  181 1   
   182  184  185 1   
   183  184  186 1   
   184  187  188 1   
   185  187  189 1   
   186  190  191 1   
   187  190  192 1   
   188  193  194 1   
   189  193  195 1   
@<TRIPOS>SUBSTRUCTURE
     1 MOL         1 TEMP              0 ****  ****    0 ROOT
