@<TRIPOS>MOLECULE
MOL
  181   177     1     0     0
SMALL
resp


@<TRIPOS>ATOM
      1 C1         -4.1050    7.8800   -0.3270 c3        1 MOL     -0.321625
      2 C2         -3.8380    6.4260   -0.8010 c         1 MOL      0.690604
      3 O1         -3.4800    6.2690   -1.9220 o         1 MOL     -0.584749
      4 H1         -5.0470    7.9160    0.2200 hc        1 MOL      0.080804
      5 H2         -3.2950    8.2050    0.3250 hc        1 MOL      0.080804
      6 H3         -4.1630    8.5400   -1.1930 hc        1 MOL      0.080804
      7 N1         -4.0400    5.4200    0.0620 n         1 MOL     -0.610357
      8 C3         -4.7540    5.4500    1.3610 c3        1 MOL      0.165601
      9 C4         -6.2870    5.2750    1.1170 c         1 MOL      0.328058
     10 O2         -7.0940    5.4610    2.0900 o         1 MOL     -0.533893
     11 C5         -4.2570    4.1700    2.1420 c3        1 MOL     -0.346477
     12 C6         -4.0840    2.8820    1.2830 c         1 MOL      0.728116
     13 O3         -2.8970    2.4580    1.0530 o         1 MOL     -0.687037
     14 O4         -5.0970    2.4230    0.6940 o         1 MOL     -0.687037
     15 H4         -3.9500    4.4990   -0.3250 hn        1 MOL      0.415601
     16 H5         -4.5820    6.3720    1.9160 h1        1 MOL      0.100452
     17 H6         -5.0390    3.9180    2.8550 hc        1 MOL      0.104772
     18 H7         -3.3520    4.3240    2.7200 hc        1 MOL      0.104772
     19 N2         -6.7820    5.0850   -0.1460 n         1 MOL     -0.133321
     20 C7         -8.1590    5.1110   -0.6020 c3        1 MOL     -0.059945
     21 C8         -8.8880    3.7600   -0.4080 c         1 MOL      0.542941
     22 O5        -10.0970    3.6760   -0.6940 o         1 MOL     -0.582465
     23 C9         -8.1810    5.5800   -2.0830 c3        1 MOL     -0.201203
     24 H8         -6.0680    4.8670   -0.8380 hn        1 MOL      0.138313
     25 H9         -8.6780    5.8570   -0.0030 h1        1 MOL      0.114040
     26 H10        -7.5500    5.0750   -2.8030 hc        1 MOL      0.067961
     27 H11        -9.1640    5.4940   -2.5560 hc        1 MOL      0.067961
     28 H12        -7.9690    6.6470   -2.1430 hc        1 MOL      0.067961
     29 N3         -8.2170    2.7370    0.0490 n         1 MOL     -0.322736
     30 C10        -8.7390    1.3330    0.0160 c3        1 MOL      0.052740
     31 C11        -8.4440    0.6130    1.3250 c         1 MOL      0.329691
     32 O6         -9.3390   -0.0640    1.8130 o         1 MOL     -0.490303
     33 C12        -8.2810    0.4720   -1.1700 c3        1 MOL     -0.037180
     34 C13        -6.7720    0.3580   -1.1690 c         1 MOL      0.700796
     35 O7         -6.1140    1.1910   -1.7970 o         1 MOL     -0.765194
     36 O8         -6.1360   -0.4700   -0.4950 o         1 MOL     -0.765194
     37 H13        -7.2350    2.8470    0.2620 hn        1 MOL      0.202505
     38 H14        -9.7860    1.4820   -0.2420 h1        1 MOL      0.096301
     39 H15        -8.5970    0.9140   -2.1120 hc        1 MOL      0.021144
     40 H16        -8.7890   -0.4970   -1.1170 hc        1 MOL      0.021144
     41 N4         -7.2740    0.8090    1.9460 n         1 MOL     -0.121937
     42 C14        -6.8550    0.1820    3.1780 c3        1 MOL     -0.091251
     43 C15        -6.8240   -1.3480    3.0610 c         1 MOL      0.466189
     44 O9         -7.0600   -1.9650    4.1150 o         1 MOL     -0.545810
     45 H17        -6.5940    1.2310    1.3370 hn        1 MOL      0.110312
     46 H18        -7.5370    0.4880    3.9770 h1        1 MOL      0.086394
     47 H19        -5.8980    0.6470    3.3930 h1        1 MOL      0.086394
     48 N5         -6.6940   -1.9680    1.8840 n         1 MOL     -0.385892
     49 C16        -6.9070   -3.3700    1.6210 c3        1 MOL      0.236312
     50 C17        -5.6310   -4.1070    1.0910 c         1 MOL      0.305470
     51 O10        -5.3330   -5.2250    1.5080 o         1 MOL     -0.500906
     52 C18        -8.0270   -3.5190    0.6320 c3        1 MOL     -0.005727
     53 C19        -8.6150   -4.9810    0.6200 c         1 MOL      0.531104
     54 N6         -8.3540   -5.7200   -0.4490 n         1 MOL     -0.723958
     55 O11        -9.1890   -5.4150    1.6110 o         1 MOL     -0.514067
     56 H20        -6.5780   -1.3590    1.0840 hn        1 MOL      0.317158
     57 H21        -7.2760   -3.8970    2.5000 h1        1 MOL      0.050397
     58 H22        -7.6540   -3.2800   -0.3590 hc        1 MOL     -0.011439
     59 H23        -8.8890   -2.9130    0.9080 hc        1 MOL     -0.011439
     60 H24        -7.9040   -5.3910   -1.2940 hn        1 MOL      0.339345
     61 H25        -8.6480   -6.6840   -0.4810 hn        1 MOL      0.339345
     62 N7         -4.8950   -3.4540    0.2060 n         1 MOL     -0.208701
     63 C20        -3.5750   -3.9940   -0.1890 c3        1 MOL     -0.303876
     64 C21        -2.9200   -3.1140   -1.2150 c         1 MOL      0.566511
     65 O12        -3.2660   -1.9320   -1.2340 o         1 MOL     -0.525984
     66 H26        -5.1380   -2.5360   -0.1150 hn        1 MOL      0.197153
     67 H27        -3.8270   -4.9860   -0.5610 h1        1 MOL      0.160982
     68 H28        -2.9700   -4.1020    0.7140 h1        1 MOL      0.160982
     69 N8         -2.0310   -3.6250   -2.0940 n         1 MOL     -0.368106
     70 C22        -1.3000   -4.9300   -1.8810 c3        1 MOL     -0.127550
     71 C23         0.1390   -4.7100   -1.2410 c         1 MOL      0.488053
     72 O13         0.8060   -5.6830   -0.8870 o         1 MOL     -0.536826
     73 C24        -1.2050   -5.7650   -3.1570 c3        1 MOL      0.277148
     74 C25        -2.4680   -6.3470   -3.7110 c3        1 MOL     -0.217552
     75 O14        -0.6260   -5.0410   -4.1880 oh        1 MOL     -0.588065
     76 H29        -1.5700   -2.9520   -2.6860 hn        1 MOL      0.305303
     77 H30        -1.8140   -5.4740   -1.0930 h1        1 MOL      0.113847
     78 H31        -0.5060   -6.5940   -3.0820 h1        1 MOL      0.027348
     79 H32        -0.2610   -5.7160   -4.7610 ho        1 MOL      0.408981
     80 H33        -3.2110   -5.5500   -3.8310 hc        1 MOL      0.053170
     81 H34        -2.3590   -6.7920   -4.6950 hc        1 MOL      0.053170
     82 H35        -2.8890   -7.1150   -3.0660 hc        1 MOL      0.053170
     83 N9          0.6120   -3.4370   -1.2190 n         1 MOL     -0.304247
     84 C26         2.0100   -3.0020   -0.9670 c3        1 MOL     -0.035717
     85 C27         1.9520   -1.4720   -0.4940 c         1 MOL      0.456296
     86 O15         1.0350   -0.7240   -0.8320 o         1 MOL     -0.518205
     87 C28         2.8860   -3.1700   -2.2330 c3        1 MOL      0.218748
     88 C29         2.2000   -2.6720   -3.4820 c3        1 MOL      0.066412
     89 C30         3.3520   -4.6070   -2.4640 c3        1 MOL     -0.326060
     90 C31         2.9360   -2.8440   -4.7960 c3        1 MOL     -0.156394
     91 H36         0.0690   -2.7350   -1.6850 hn        1 MOL      0.126444
     92 H37         2.4430   -3.6210   -0.1810 h1        1 MOL      0.154340
     93 H38         3.7600   -2.5480   -2.0490 hc        1 MOL      0.018306
     94 H39         1.9570   -1.6120   -3.4640 hc        1 MOL      0.020736
     95 H40         1.2610   -3.1850   -3.6960 hc        1 MOL      0.020736
     96 H41         2.6250   -5.2090   -3.0120 hc        1 MOL      0.072470
     97 H42         4.1900   -4.4940   -3.1410 hc        1 MOL      0.072470
     98 H43         3.7380   -5.0830   -1.5700 hc        1 MOL      0.072470
     99 H44         4.0090   -2.6740   -4.7170 hc        1 MOL      0.022740
    100 H45         2.7710   -3.9010   -4.9990 hc        1 MOL      0.022740
    101 H46         2.4480   -2.2450   -5.5550 hc        1 MOL      0.022740
    102 N10         2.8720   -0.9980    0.3530 n         1 MOL     -0.421023
    103 C32         4.0220   -1.7020    1.0290 c3        1 MOL      0.048461
    104 C33         5.3560   -0.9170    0.8870 c         1 MOL      0.445556
    105 O16         5.4580    0.2900    0.6300 o         1 MOL     -0.513137
    106 C34         3.7110   -1.9990    2.5670 c3        1 MOL     -0.008029
    107 C35         2.9250   -0.9070    3.3330 c         1 MOL      0.671871
    108 O17         2.0910   -1.3500    4.2060 o         1 MOL     -0.698320
    109 O18         3.1490    0.3110    2.9840 o         1 MOL     -0.698320
    110 H47         2.6580   -0.1250    0.8050 hn        1 MOL      0.353316
    111 H48         4.2630   -2.6490    0.5330 h1        1 MOL     -0.027180
    112 H49         4.6410   -2.1930    3.1040 hc        1 MOL     -0.032712
    113 H50         3.0900   -2.8950    2.6350 hc        1 MOL     -0.032712
    114 N11         6.4440   -1.6020    1.1820 n         1 MOL     -0.153533
    115 C36         7.8020   -1.1220    1.1180 c3        1 MOL      0.206763
    116 C37         8.4100   -1.4300   -0.2890 c         1 MOL      0.113299
    117 O19         7.7420   -2.2110   -1.0630 o         1 MOL     -0.496516
    118 C38         8.5640   -1.8940    2.1760 c3        1 MOL      0.040108
    119 C39         8.0010   -1.7260    3.5870 ca        1 MOL     -0.001078
    120 C40         8.3850   -0.6140    4.3330 ca        1 MOL     -0.155602
    121 C41         7.0740   -2.6790    4.1390 ca        1 MOL     -0.155602
    122 C42         7.8290   -0.4280    5.6260 ca        1 MOL     -0.084704
    123 C43         6.4510   -2.4210    5.3740 ca        1 MOL     -0.084704
    124 C44         6.8440   -1.3090    6.1000 ca        1 MOL     -0.159317
    125 H51         6.3580   -2.6050    1.1490 hn        1 MOL      0.170948
    126 H52         7.8460   -0.0440    1.2860 h1        1 MOL      0.100263
    127 H53         9.6070   -1.5710    2.0900 hc        1 MOL     -0.010563
    128 H54         8.5850   -2.9740    2.0360 hc        1 MOL     -0.010563
    129 H55         8.8910    0.1970    3.8460 ha        1 MOL      0.099258
    130 H56         6.8050   -3.5920    3.6380 ha        1 MOL      0.099258
    131 H57         7.9880    0.4880    6.1700 ha        1 MOL      0.110364
    132 H58         5.6940   -3.1220    5.7020 ha        1 MOL      0.110364
    133 H59         6.2830   -1.0410    6.9810 ha        1 MOL      0.123078
    134 N12         9.5420   -0.8740   -0.7820 n         1 MOL      0.052182
    135 C45        10.3730    0.1360   -0.0830 c3        1 MOL      0.024255
    136 C46         9.7830    1.5090    0.1190 c         1 MOL      0.400725
    137 O20         9.9290    2.1410    1.1820 o         1 MOL     -0.526572
    138 C47        11.6240    0.3190   -0.9490 c3        1 MOL     -0.149086
    139 C48        11.6710   -0.9810   -1.7670 c3        1 MOL     -0.074981
    140 C49        10.2420   -1.4260   -1.9690 c3        1 MOL      0.008776
    141 H60        10.7800   -0.2380    0.8590 h1        1 MOL      0.055099
    142 H61        11.4870    1.1510   -1.6320 hc        1 MOL      0.087739
    143 H62        12.5490    0.3950   -0.3750 hc        1 MOL      0.087739
    144 H63        12.1480   -0.7880   -2.7270 hc        1 MOL      0.027841
    145 H64        12.2420   -1.7180   -1.2070 hc        1 MOL      0.027841
    146 H65         9.7510   -0.9290   -2.8070 h1        1 MOL      0.051788
    147 H66        10.2530   -2.5090   -2.0780 h1        1 MOL      0.051788
    148 N13         9.0570    2.1290   -0.8540 n         1 MOL     -0.568002
    149 C50         8.5660    3.5200   -0.8030 c3        1 MOL      0.361061
    150 C51         9.7860    4.4460   -0.7660 c         1 MOL      0.426251
    151 O21        10.4360    4.4940   -1.7960 o         1 MOL     -0.577149
    152 C52         7.6720    3.7910   -2.0380 c3        1 MOL     -0.224985
    153 C53         6.4300    2.8860   -2.0300 c3        1 MOL     -0.281409
    154 C54         5.3270    3.4480   -2.9460 c         1 MOL      0.830878
    155 O22         4.1950    3.2460   -2.5430 o         1 MOL     -0.768464
    156 O23         5.5100    3.9670   -4.0770 o         1 MOL     -0.768464
    157 H67         8.8350    1.5730   -1.6690 hn        1 MOL      0.342356
    158 H68         8.0170    3.5970    0.1250 h1        1 MOL      0.072041
    159 H69         8.2740    3.6740   -2.9440 hc        1 MOL      0.054717
    160 H70         7.3770    4.8330   -1.9510 hc        1 MOL      0.054717
    161 H71         6.0510    2.8430   -1.0050 hc        1 MOL      0.065181
    162 H72         6.6920    1.9180   -2.4390 hc        1 MOL      0.065181
    163 N14        10.1570    5.1370    0.3020 n         1 MOL     -0.352998
    164 C55         9.6150    5.2440    1.6620 c3        1 MOL     -0.106736
    165 H73         8.5840    4.8910    1.6700 h1        1 MOL      0.069762
    166 H74        10.2120    4.6350    2.3410 h1        1 MOL      0.069762
    167 H75         9.6440    6.2850    1.9850 h1        1 MOL      0.069762
    168 H76        10.9830    5.6960    0.1910 hn        1 MOL      0.266417
    169 Ca1        -3.7770    0.6850   -0.7240 Ca        1 MOL      1.780185
    170 O24        -3.2920   -0.9230    1.3810 oh        1 MOL     -0.891246
    171 H77        -3.7320   -1.4650    2.0350 ho        1 MOL      0.432893
    172 H78        -2.3770   -1.1980    1.4260 ho        1 MOL      0.432893
    173 O25        -3.4560    0.2540   -3.5270 oh        1 MOL     -0.891246
    174 H79        -4.1640   -0.1380   -4.0390 ho        1 MOL      0.432893
    175 H80        -3.1270    0.9700   -4.0780 ho        1 MOL      0.432893
    176 O26        -3.3510    2.9070   -1.9260 oh        1 MOL     -0.891246
    177 H81        -2.6190    3.3310   -2.3840 ho        1 MOL      0.432893
    178 H82        -4.1230    3.2020   -2.3970 ho        1 MOL      0.432893
    179 O27        -1.2400    0.4040   -0.5180 oh        1 MOL     -0.891246
    180 H83        -0.8870    1.2990   -0.5510 ho        1 MOL      0.432893
    181 H84        -0.4790   -0.1520   -0.6610 ho        1 MOL      0.432893
@<TRIPOS>BOND
     1    1    2 1   
     2    1    4 1   
     3    1    5 1   
     4    1    6 1   
     5    2    3 2   
     6    2    7 1   
     7    7    8 1   
     8    7   15 1   
     9    8    9 1   
    10    8   11 1   
    11    8   16 1   
    12    9   10 2   
    13    9   19 1   
    14   11   12 1   
    15   11   17 1   
    16   11   18 1   
    17   12   13 1   
    18   12   14 1   
    19   19   20 1   
    20   19   24 1   
    21   20   21 1   
    22   20   23 1   
    23   20   25 1   
    24   21   22 2   
    25   21   29 1   
    26   23   26 1   
    27   23   27 1   
    28   23   28 1   
    29   29   30 1   
    30   29   37 1   
    31   30   31 1   
    32   30   33 1   
    33   30   38 1   
    34   31   32 2   
    35   31   41 1   
    36   33   34 1   
    37   33   39 1   
    38   33   40 1   
    39   34   35 1   
    40   34   36 1   
    41   41   42 1   
    42   41   45 1   
    43   42   43 1   
    44   42   46 1   
    45   42   47 1   
    46   43   44 2   
    47   43   48 1   
    48   48   49 1   
    49   48   56 1   
    50   49   50 1   
    51   49   52 1   
    52   49   57 1   
    53   50   51 2   
    54   50   62 1   
    55   52   53 1   
    56   52   58 1   
    57   52   59 1   
    58   53   54 1   
    59   53   55 2   
    60   54   60 1   
    61   54   61 1   
    62   62   63 1   
    63   62   66 1   
    64   63   64 1   
    65   63   67 1   
    66   63   68 1   
    67   64   65 2   
    68   64   69 1   
    69   69   70 1   
    70   69   76 1   
    71   70   71 1   
    72   70   73 1   
    73   70   77 1   
    74   71   72 2   
    75   71   83 1   
    76   73   74 1   
    77   73   75 1   
    78   73   78 1   
    79   74   80 1   
    80   74   81 1   
    81   74   82 1   
    82   75   79 1   
    83   83   84 1   
    84   83   91 1   
    85   84   85 1   
    86   84   87 1   
    87   84   92 1   
    88   85   86 2   
    89   85  102 1   
    90   87   88 1   
    91   87   89 1   
    92   87   93 1   
    93   88   90 1   
    94   88   94 1   
    95   88   95 1   
    96   89   96 1   
    97   89   97 1   
    98   89   98 1   
    99   90   99 1   
   100   90  100 1   
   101   90  101 1   
   102  102  103 1   
   103  102  110 1   
   104  103  104 1   
   105  103  106 1   
   106  103  111 1   
   107  104  105 2   
   108  104  114 1   
   109  106  107 1   
   110  106  112 1   
   111  106  113 1   
   112  107  108 1   
   113  107  109 1   
   114  114  115 1   
   115  114  125 1   
   116  115  116 1   
   117  115  118 1   
   118  115  126 1   
   119  116  117 2   
   120  116  134 1   
   121  118  119 1   
   122  118  127 1   
   123  118  128 1   
   124  119  120 ar  
   125  119  121 ar  
   126  120  122 ar  
   127  120  129 1   
   128  121  123 ar  
   129  121  130 1   
   130  122  124 ar  
   131  122  131 1   
   132  123  124 ar  
   133  123  132 1   
   134  124  133 1   
   135  134  135 1   
   136  134  140 1   
   137  135  136 1   
   138  135  138 1   
   139  135  141 1   
   140  136  137 2   
   141  136  148 1   
   142  138  139 1   
   143  138  142 1   
   144  138  143 1   
   145  139  140 1   
   146  139  144 1   
   147  139  145 1   
   148  140  146 1   
   149  140  147 1   
   150  148  149 1   
   151  148  157 1   
   152  149  150 1   
   153  149  152 1   
   154  149  158 1   
   155  150  151 2   
   156  150  163 1   
   157  152  153 1   
   158  152  159 1   
   159  152  160 1   
   160  153  154 1   
   161  153  161 1   
   162  153  162 1   
   163  154  155 1   
   164  154  156 1   
   165  163  164 1   
   166  163  168 1   
   167  164  165 1   
   168  164  166 1   
   169  164  167 1   
   170  170  171 1   
   171  170  172 1   
   172  173  174 1   
   173  173  175 1   
   174  176  177 1   
   175  176  178 1   
   176  179  180 1   
   177  179  181 1   
@<TRIPOS>SUBSTRUCTURE
     1 MOL         1 TEMP              0 ****  ****    0 ROOT
