@<TRIPOS>MOLECULE
MOL
  198   191     1     0     0
SMALL
resp


@<TRIPOS>ATOM
      1 C1         -1.4790   -4.1590    1.9470 c3        1 MOL     -0.461787
      2 C2         -0.0730   -3.7890    1.2930 c         1 MOL      0.643021
      3 O1          0.7090   -3.0470    1.8460 o         1 MOL     -0.503954
      4 H1         -1.3150   -4.6410    2.9100 hc        1 MOL      0.088669
      5 H2         -2.0650   -3.2510    2.0920 hc        1 MOL      0.088669
      6 H3         -2.0190   -4.8390    1.2890 hc        1 MOL      0.088669
      7 N1          0.1280   -4.2870    0.0510 n         1 MOL     -0.555978
      8 C3          1.1880   -4.1380   -0.9050 c3        1 MOL      0.008788
      9 C4          2.6230   -4.3740   -0.4440 c         1 MOL      0.441159
     10 O2          3.3170   -3.3570   -0.2840 o         1 MOL     -0.462857
     11 C5          0.9910   -2.8700   -1.7590 c3        1 MOL     -0.306242
     12 C6          1.7670   -2.8330   -3.1100 c         1 MOL      0.627160
     13 O3          2.3220   -3.8660   -3.5150 o         1 MOL     -0.620007
     14 O4          1.8270   -1.7370   -3.7180 o         1 MOL     -0.620007
     15 H4         -0.6690   -4.7700   -0.3420 hn        1 MOL      0.316630
     16 H5          0.9980   -4.9450   -1.6210 h1        1 MOL      0.064008
     17 H6          1.0750   -1.9390   -1.1920 hc        1 MOL      0.124840
     18 H7         -0.0490   -2.9020   -2.0960 hc        1 MOL      0.124840
     19 N2          3.0380   -5.6350   -0.3180 n         1 MOL     -0.428393
     20 C7          4.1550   -6.0010    0.5820 c3        1 MOL     -0.049628
     21 C8          5.3120   -6.4770   -0.2860 c         1 MOL      0.587170
     22 O5          5.1230   -7.3900   -1.1110 o         1 MOL     -0.610777
     23 C9          3.5620   -7.0250    1.6290 c3        1 MOL      0.280463
     24 C10         2.2660   -6.5150    2.3890 c3        1 MOL     -0.076871
     25 C11         4.7790   -7.2020    2.5980 c3        1 MOL     -0.228825
     26 C12         1.7390   -7.3660    3.5490 c3        1 MOL     -0.325940
     27 H8          2.4270   -6.3860   -0.6060 hn        1 MOL      0.256233
     28 H9          4.3990   -5.0700    1.0970 h1        1 MOL      0.110994
     29 H10         3.3770   -8.0050    1.1730 hc        1 MOL     -0.046826
     30 H11         1.4920   -6.4780    1.6260 hc        1 MOL      0.074001
     31 H12         2.4460   -5.4780    2.6930 hc        1 MOL      0.074001
     32 H13         4.4830   -7.9770    3.3050 hc        1 MOL      0.051292
     33 H14         5.6530   -7.6070    2.0860 hc        1 MOL      0.051292
     34 H15         4.9690   -6.2150    3.0420 hc        1 MOL      0.051292
     35 H16         2.4850   -7.6560    4.2910 hc        1 MOL      0.073175
     36 H17         0.9020   -6.7910    3.9540 hc        1 MOL      0.073175
     37 H18         1.4760   -8.3260    3.1140 hc        1 MOL      0.073175
     38 N3          6.5380   -5.9970   -0.2110 n         1 MOL     -0.446641
     39 C13         6.9140   -4.7440    0.4400 c3        1 MOL     -0.022393
     40 C14         6.4680   -3.4630   -0.2810 c         1 MOL      0.507288
     41 O6          6.6600   -2.3510    0.2080 o         1 MOL     -0.554539
     42 C15         8.4310   -4.7860    0.7580 c3        1 MOL     -0.080995
     43 C16         9.0550   -6.0930    1.1530 c         1 MOL      0.705001
     44 O7          8.3830   -7.0160    1.7500 o         1 MOL     -0.669276
     45 O8         10.3140   -6.2570    1.0130 o         1 MOL     -0.669276
     46 H19         7.2820   -6.4590   -0.7060 hn        1 MOL      0.301985
     47 H20         6.3790   -4.7150    1.3880 h1        1 MOL      0.073892
     48 H21         8.7150   -4.0540    1.5070 hc        1 MOL      0.034182
     49 H22         8.9360   -4.4860   -0.1620 hc        1 MOL      0.034182
     50 N4          5.9530   -3.6400   -1.4870 n         1 MOL     -0.410687
     51 C17         5.3830   -2.5830   -2.3120 c3        1 MOL     -0.072116
     52 C18         6.4760   -1.5500   -2.6720 c         1 MOL      0.422177
     53 O9          7.6800   -1.8000   -2.5730 o         1 MOL     -0.507677
     54 H23         5.8680   -4.5910   -1.8160 hn        1 MOL      0.293294
     55 H24         4.6020   -2.0610   -1.7670 h1        1 MOL      0.147104
     56 H25         5.0260   -3.0250   -3.2360 h1        1 MOL      0.147104
     57 N5          5.8770   -0.3830   -2.9430 n         1 MOL     -0.419044
     58 C19         6.6970    0.8540   -3.1350 c3        1 MOL     -0.025831
     59 C20         7.4010    1.2640   -1.8160 c         1 MOL      0.360769
     60 O10         8.4630    1.8630   -1.9000 o         1 MOL     -0.555365
     61 C21         5.8960    2.0230   -3.6710 c3        1 MOL     -0.043390
     62 C22         4.5080    1.9920   -3.0640 c         1 MOL      0.662868
     63 O11         3.5190    1.9040   -3.7710 o         1 MOL     -0.596934
     64 O12         4.4480    2.1690   -1.8430 o         1 MOL     -0.596934
     65 H26         4.8720   -0.3360   -2.8020 hn        1 MOL      0.282152
     66 H27         7.4370    0.6660   -3.9120 h1        1 MOL      0.105824
     67 H28         5.8050    2.0880   -4.7560 hc        1 MOL      0.005357
     68 H29         6.4080    2.9740   -3.4960 hc        1 MOL      0.005357
     69 N6          6.9520    0.8420   -0.6300 n         1 MOL      0.078580
     70 C23         7.4310    1.3160    0.6200 c3        1 MOL     -0.327709
     71 C24         7.0560    2.7800    0.9220 c         1 MOL      0.604973
     72 O13         7.4510    3.2390    1.9730 o         1 MOL     -0.596713
     73 H30         6.1070    0.3180   -0.5160 hn        1 MOL      0.185010
     74 H31         8.5140    1.1830    0.6790 h1        1 MOL      0.126764
     75 H32         6.9680    0.6620    1.3560 h1        1 MOL      0.126764
     76 N7          6.3560    3.5320    0.0470 n         1 MOL     -0.094065
     77 C25         5.8480    4.8580    0.1750 c3        1 MOL     -0.084400
     78 C26         5.0340    5.1480    1.4310 c         1 MOL      0.536239
     79 O14         5.0760    6.1970    1.9670 o         1 MOL     -0.495464
     80 C27         6.9850    5.8580   -0.0200 c3        1 MOL      0.181672
     81 C28         7.5970    5.8200   -1.4730 c3        1 MOL     -0.194607
     82 C29         7.5200    7.1240   -2.2310 c         1 MOL      0.697394
     83 N8          8.4310    7.3290   -3.1080 n         1 MOL     -0.827759
     84 O15         6.6000    7.8460   -2.0130 o         1 MOL     -0.568687
     85 H33         6.0880    3.0560   -0.8140 hn        1 MOL     -0.057241
     86 H34         5.1870    4.9920   -0.6750 h1        1 MOL      0.136384
     87 H35         7.8230    5.6520    0.6520 hc        1 MOL     -0.031072
     88 H36         6.7200    6.8940    0.1910 hc        1 MOL     -0.031072
     89 H37         7.1070    5.0680   -2.0970 hc        1 MOL      0.052724
     90 H38         8.6440    5.5020   -1.4180 hc        1 MOL      0.052724
     91 H39         9.2420    6.7460   -3.2360 hn        1 MOL      0.349953
     92 H40         8.3610    8.1160   -3.7320 hn        1 MOL      0.349953
     93 N9          4.2900    4.1070    1.9840 n         1 MOL     -0.492513
     94 C30         3.5090    4.1470    3.2380 c3        1 MOL      0.032253
     95 C31         2.0090    3.6480    3.1570 c         1 MOL      0.518122
     96 O16         1.2080    3.9250    4.0070 o         1 MOL     -0.575750
     97 C32         4.2480    3.3430    4.3670 c3        1 MOL      0.330927
     98 C33         4.4090    1.8770    4.0250 c3        1 MOL     -0.344889
     99 C34         5.5750    3.8900    4.7790 c3        1 MOL     -0.344889
    100 H41         4.3620    3.2250    1.5010 hn        1 MOL      0.264448
    101 H42         3.5120    5.1690    3.5970 h1        1 MOL      0.065741
    102 H43         3.6430    3.4830    5.2600 hc        1 MOL     -0.066675
    103 H44         5.1640    1.7700    3.2470 hc        1 MOL      0.075660
    104 H45         4.8480    1.4340    4.9140 hc        1 MOL      0.075660
    105 H46         3.4720    1.4200    3.7070 hc        1 MOL      0.075660
    106 H47         6.4170    4.1320    4.1330 hc        1 MOL      0.075660
    107 H48         5.4640    4.8500    5.2960 hc        1 MOL      0.075660
    108 H49         6.0150    3.1980    5.5070 hc        1 MOL      0.075660
    109 N10         1.6020    2.9090    2.1030 n         1 MOL     -0.413544
    110 C35         0.2720    2.3420    2.0220 c3        1 MOL      0.335491
    111 C36        -0.3100    2.7320    0.6230 c         1 MOL      0.445062
    112 O17         0.4440    3.1910   -0.2170 o         1 MOL     -0.535421
    113 C37         0.3930    0.7630    2.2280 c3        1 MOL     -0.279124
    114 C38        -0.9830    0.1550    2.5610 c         1 MOL      0.684723
    115 N11        -1.0260   -1.1010    2.9160 n         1 MOL     -0.741044
    116 O18        -1.9550    0.8670    2.5800 o         1 MOL     -0.593233
    117 H50         2.2610    2.7820    1.3510 hn        1 MOL      0.213254
    118 H51        -0.3550    2.8380    2.7650 h1        1 MOL      0.038303
    119 H52         1.0170    0.5110    3.0760 hc        1 MOL      0.103837
    120 H53         0.6340    0.2570    1.2910 hc        1 MOL      0.103837
    121 H54        -0.1900   -1.6740    2.8730 hn        1 MOL      0.335837
    122 H55        -1.9600   -1.4230    3.1100 hn        1 MOL      0.335837
    123 N12        -1.5910    2.5620    0.3840 n         1 MOL     -0.358105
    124 C39        -2.3120    3.0830   -0.7280 c3        1 MOL      0.223529
    125 C40        -3.6380    3.5590   -0.1290 c         1 MOL      0.451520
    126 O19        -3.9930    3.3810    1.0320 o         1 MOL     -0.553191
    127 C41        -2.4980    2.0510   -1.9000 c3        1 MOL     -0.608467
    128 C42        -3.2810    0.8070   -1.5070 ca        1 MOL      0.145292
    129 C43        -2.6230   -0.3360   -0.8710 ca        1 MOL     -0.021404
    130 C44        -4.5620    0.7610   -1.9450 ca        1 MOL     -0.021404
    131 C45        -3.3460   -1.5490   -0.7630 ca        1 MOL     -0.698548
    132 C46        -5.2330   -0.4760   -1.9050 ca        1 MOL     -0.698548
    133 C47        -4.6850   -1.6030   -1.2810 ca        1 MOL      0.860909
    134 O20        -5.3810   -2.7220   -1.2910 oh        1 MOL     -0.651953
    135 H56        -2.1820    2.0110    0.9850 hn        1 MOL      0.205706
    136 H57        -1.8320    3.9640   -1.1460 h1        1 MOL      0.056483
    137 H58        -1.5090    1.7700   -2.2690 hc        1 MOL      0.215515
    138 H59        -2.9580    2.6830   -2.6520 hc        1 MOL      0.215515
    139 H60        -1.6380   -0.2310   -0.4240 ha        1 MOL      0.115031
    140 H61        -5.0360    1.5880   -2.4690 ha        1 MOL      0.115031
    141 H62        -2.9380   -2.4380   -0.3010 ha        1 MOL      0.372291
    142 H63        -6.2620   -0.5420   -2.2130 ha        1 MOL      0.372291
    143 H64        -4.9750   -3.4260   -0.7720 ho        1 MOL      0.237432
    144 N13        -4.4150    4.2460   -0.9680 n         1 MOL     -0.458573
    145 C48        -5.7480    4.7610   -0.6770 c3        1 MOL      0.045334
    146 C49        -6.7320    4.1650   -1.7350 c         1 MOL      0.497844
    147 O21        -6.9530    4.6290   -2.8460 o         1 MOL     -0.560133
    148 C50        -5.7510    6.2850   -0.8550 c3        1 MOL     -0.240757
    149 C51        -5.2510    6.9720    0.4510 c3        1 MOL     -0.103991
    150 C52        -5.3290    8.4600    0.3420 c         1 MOL      0.658876
    151 O22        -5.1570    8.9230   -0.8610 o         1 MOL     -0.647071
    152 O23        -5.4350    9.2210    1.3200 o         1 MOL     -0.647071
    153 H65        -4.0970    4.4680   -1.8980 hn        1 MOL      0.310090
    154 H66        -6.1260    4.5190    0.3200 h1        1 MOL      0.176018
    155 H67        -6.7420    6.7170   -0.9880 hc        1 MOL      0.102687
    156 H68        -5.1030    6.6380   -1.6590 hc        1 MOL      0.102687
    157 H69        -4.2070    6.6740    0.5850 hc        1 MOL      0.050317
    158 H70        -5.7770    6.6940    1.3650 hc        1 MOL      0.050317
    159 N14        -7.4270    3.0570   -1.4030 n         1 MOL     -0.244367
    160 C53        -7.4610    2.2780   -0.1580 c3        1 MOL     -0.687847
    161 C54        -7.8980    3.1410    1.0360 c         1 MOL      0.527337
    162 O24        -8.5440    4.1550    0.8590 o         1 MOL     -0.505848
    163 C55        -8.3690    1.0260   -0.3380 c3        1 MOL      1.239381
    164 C56        -8.3210    0.0330    0.8260 c3        1 MOL     -1.312565
    165 C57        -9.0040   -1.3250    0.5370 c         1 MOL      0.986260
    166 O25        -8.7240   -2.4120    1.1040 o         1 MOL     -0.613787
    167 O26        -9.7310   -1.4130   -0.4440 o         1 MOL     -0.613787
    168 H71        -8.0330    2.7370   -2.1420 hn        1 MOL      0.202813
    169 H72        -6.4610    1.8490   -0.0280 h1        1 MOL      0.184590
    170 H73        -7.9110    0.6280   -1.2450 hc        1 MOL     -0.213535
    171 H74        -9.4000    1.3580   -0.4650 hc        1 MOL     -0.213535
    172 H75        -8.7500    0.5500    1.6810 hc        1 MOL      0.197556
    173 H76        -7.2780   -0.0910    1.1390 hc        1 MOL      0.197556
    174 N15        -7.2790    2.8320    2.2030 n         1 MOL     -0.274233
    175 C58        -7.4930    3.4880    3.5080 c3        1 MOL     -0.009081
    176 H77        -6.6270    3.3160    4.1470 h1        1 MOL      0.038698
    177 H78        -7.6270    4.5590    3.3590 h1        1 MOL      0.038698
    178 H79        -8.3820    3.0740    3.9820 h1        1 MOL      0.038698
    179 H80        -6.5870    2.0980    2.1570 hn        1 MOL      0.341896
    180 Ca1        -9.3830   -4.3420   -0.4630 Ca        1 MOL      1.568852
    181 O27       -11.2850   -6.1650   -0.1030 oh        1 MOL     -0.918358
    182 H81       -11.3300   -7.1150   -0.1490 ho        1 MOL      0.398995
    183 H82       -12.1920   -5.8820    0.0530 ho        1 MOL      0.398995
    184 O28       -11.3280   -3.4460   -2.2240 oh        1 MOL     -0.918358
    185 H83       -11.6850   -4.1060   -2.8200 ho        1 MOL      0.398995
    186 H84       -11.5430   -2.6090   -2.6330 ho        1 MOL      0.398995
    187 O29        -9.6790   -6.0830   -2.5050 oh        1 MOL     -0.918358
    188 H85        -9.8510   -5.9590   -3.4370 ho        1 MOL      0.398995
    189 H86        -9.4490   -7.0170   -2.4170 ho        1 MOL      0.398995
    190 O30        -9.7700   -5.2790    2.4610 oh        1 MOL     -0.918358
    191 H87       -10.5760   -5.7250    2.7360 ho        1 MOL      0.398995
    192 H88        -9.4880   -4.8140    3.2530 ho        1 MOL      0.398995
    193 O31        -8.0340   -3.0360   -2.6000 oh        1 MOL     -0.918358
    194 H89        -8.1310   -2.4530   -3.3550 ho        1 MOL      0.398995
    195 H90        -7.0940   -3.2170   -2.5500 ho        1 MOL      0.398995
    196 O32       -11.7200   -3.3450    0.8240 oh        1 MOL     -0.918358
    197 H91       -12.3790   -3.9490    1.1700 ho        1 MOL      0.398995
    198 H92       -12.2060   -2.5350    0.6730 ho        1 MOL      0.398995
@<TRIPOS>BOND
     1    1    2 1   
     2    1    4 1   
     3    1    5 1   
     4    1    6 1   
     5    2    3 2   
     6    2    7 1   
     7    7    8 1   
     8    7   15 1   
     9    8    9 1   
    10    8   11 1   
    11    8   16 1   
    12    9   10 2   
    13    9   19 1   
    14   11   12 1   
    15   11   17 1   
    16   11   18 1   
    17   12   13 1   
    18   12   14 1   
    19   19   20 1   
    20   19   27 1   
    21   20   21 1   
    22   20   23 1   
    23   20   28 1   
    24   21   22 2   
    25   21   38 1   
    26   23   24 1   
    27   23   25 1   
    28   23   29 1   
    29   24   26 1   
    30   24   30 1   
    31   24   31 1   
    32   25   32 1   
    33   25   33 1   
    34   25   34 1   
    35   26   35 1   
    36   26   36 1   
    37   26   37 1   
    38   38   39 1   
    39   38   46 1   
    40   39   40 1   
    41   39   42 1   
    42   39   47 1   
    43   40   41 2   
    44   40   50 1   
    45   42   43 1   
    46   42   48 1   
    47   42   49 1   
    48   43   44 1   
    49   43   45 1   
    50   50   51 1   
    51   50   54 1   
    52   51   52 1   
    53   51   55 1   
    54   51   56 1   
    55   52   53 2   
    56   52   57 1   
    57   57   58 1   
    58   57   65 1   
    59   58   59 1   
    60   58   61 1   
    61   58   66 1   
    62   59   60 2   
    63   59   69 1   
    64   61   62 1   
    65   61   67 1   
    66   61   68 1   
    67   62   63 1   
    68   62   64 1   
    69   69   70 1   
    70   69   73 1   
    71   70   71 1   
    72   70   74 1   
    73   70   75 1   
    74   71   72 2   
    75   71   76 1   
    76   76   77 1   
    77   76   85 1   
    78   77   78 1   
    79   77   80 1   
    80   77   86 1   
    81   78   79 2   
    82   78   93 1   
    83   80   81 1   
    84   80   87 1   
    85   80   88 1   
    86   81   82 1   
    87   81   89 1   
    88   81   90 1   
    89   82   83 1   
    90   82   84 2   
    91   83   91 1   
    92   83   92 1   
    93   93   94 1   
    94   93  100 1   
    95   94   95 1   
    96   94   97 1   
    97   94  101 1   
    98   95   96 2   
    99   95  109 1   
   100   97   98 1   
   101   97   99 1   
   102   97  102 1   
   103   98  103 1   
   104   98  104 1   
   105   98  105 1   
   106   99  106 1   
   107   99  107 1   
   108   99  108 1   
   109  109  110 1   
   110  109  117 1   
   111  110  111 1   
   112  110  113 1   
   113  110  118 1   
   114  111  112 2   
   115  111  123 1   
   116  113  114 1   
   117  113  119 1   
   118  113  120 1   
   119  114  115 1   
   120  114  116 2   
   121  115  121 1   
   122  115  122 1   
   123  123  124 1   
   124  123  135 1   
   125  124  125 1   
   126  124  127 1   
   127  124  136 1   
   128  125  126 2   
   129  125  144 1   
   130  127  128 1   
   131  127  137 1   
   132  127  138 1   
   133  128  129 ar  
   134  128  130 ar  
   135  129  131 ar  
   136  129  139 1   
   137  130  132 ar  
   138  130  140 1   
   139  131  133 ar  
   140  131  141 1   
   141  132  133 ar  
   142  132  142 1   
   143  133  134 1   
   144  134  143 1   
   145  144  145 1   
   146  144  153 1   
   147  145  146 1   
   148  145  148 1   
   149  145  154 1   
   150  146  147 2   
   151  146  159 1   
   152  148  149 1   
   153  148  155 1   
   154  148  156 1   
   155  149  150 1   
   156  149  157 1   
   157  149  158 1   
   158  150  151 1   
   159  150  152 1   
   160  159  160 1   
   161  159  168 1   
   162  160  161 1   
   163  160  163 1   
   164  160  169 1   
   165  161  162 2   
   166  161  174 1   
   167  163  164 1   
   168  163  170 1   
   169  163  171 1   
   170  164  165 1   
   171  164  172 1   
   172  164  173 1   
   173  165  166 1   
   174  165  167 1   
   175  174  175 1   
   176  174  179 1   
   177  175  176 1   
   178  175  177 1   
   179  175  178 1   
   180  181  182 1   
   181  181  183 1   
   182  184  185 1   
   183  184  186 1   
   184  187  188 1   
   185  187  189 1   
   186  190  191 1   
   187  190  192 1   
   188  193  194 1   
   189  193  195 1   
   190  196  197 1   
   191  196  198 1   
@<TRIPOS>SUBSTRUCTURE
     1 MOL         1 TEMP              0 ****  ****    0 ROOT
