@<TRIPOS>MOLECULE
MOL
  189   185     1     0     0
SMALL
resp


@<TRIPOS>ATOM
      1 C1          4.7630    3.9500   -3.2300 c3        1 MOL     -0.403083
      2 C2          5.4720    3.1210   -2.1710 c         1 MOL      0.780337
      3 O1          4.8460    2.8970   -1.0950 o         1 MOL     -0.567515
      4 H1          4.2210    3.2890   -3.9060 hc        1 MOL      0.101894
      5 H2          4.0620    4.6320   -2.7490 hc        1 MOL      0.101894
      6 H3          5.4980    4.5240   -3.7960 hc        1 MOL      0.101894
      7 N1          6.6660    2.5650   -2.4860 n         1 MOL     -0.684984
      8 C3          7.3760    1.5080   -1.7310 c3        1 MOL      0.255942
      9 C4          6.3840    0.4380   -1.4360 c         1 MOL      0.198321
     10 O2          5.8340    0.3090   -0.3220 o         1 MOL     -0.296509
     11 C5          8.0560    1.9460   -0.4800 c3        1 MOL     -0.067230
     12 C6          7.4030    3.0220    0.4080 c         1 MOL      0.706768
     13 O3          6.6440    2.6120    1.2730 o         1 MOL     -0.717524
     14 O4          7.6810    4.2110    0.1880 o         1 MOL     -0.717524
     15 H4          7.0350    2.8100   -3.3950 hn        1 MOL      0.318145
     16 H5          8.1680    1.1000   -2.3660 h1        1 MOL      0.031514
     17 H6          9.0360    2.3650   -0.6840 hc        1 MOL      0.001791
     18 H7          8.2600    1.0790    0.1440 hc        1 MOL      0.001791
     19 N2          6.0000   -0.3370   -2.4920 n         1 MOL     -0.395474
     20 C7          5.1350   -1.5060   -2.6040 c3        1 MOL     -0.000799
     21 C8          5.5950   -2.7910   -1.8870 c         1 MOL      0.351832
     22 O5          5.6460   -3.8930   -2.3670 o         1 MOL     -0.546105
     23 C9          3.6550   -1.1980   -2.3920 c3        1 MOL      0.249357
     24 C10         2.6240   -2.2970   -2.7320 c3        1 MOL     -0.297412
     25 C11         3.3000    0.1050   -3.1930 c3        1 MOL     -0.192440
     26 C12         2.7110   -2.8560   -4.1390 c3        1 MOL     -0.070492
     27 H8          6.4910   -0.1690   -3.3530 hn        1 MOL      0.260748
     28 H9          5.1570   -1.7060   -3.6850 h1        1 MOL      0.091292
     29 H10         3.5320   -0.9580   -1.3430 hc        1 MOL     -0.139932
     30 H11         1.6470   -1.8690   -2.5540 hc        1 MOL      0.152980
     31 H12         2.7150   -3.1950   -2.1270 hc        1 MOL      0.152980
     32 H13         3.8650    0.2100   -4.1200 hc        1 MOL      0.033575
     33 H14         2.2330    0.1580   -3.3970 hc        1 MOL      0.033575
     34 H15         3.5950    0.9170   -2.5330 hc        1 MOL      0.033575
     35 H16         2.0750   -3.7280   -4.2540 hc        1 MOL      0.004527
     36 H17         2.4630   -2.2180   -4.9970 hc        1 MOL      0.004527
     37 H18         3.7500   -3.0640   -4.3900 hc        1 MOL      0.004527
     38 N3          6.0060   -2.6680   -0.6220 n         1 MOL     -0.117412
     39 C13         6.7810   -3.6800    0.1840 c3        1 MOL      0.077669
     40 C14         5.9770   -4.9400    0.6380 c         1 MOL      0.591542
     41 O6          6.6270   -5.9750    0.6040 o         1 MOL     -0.595501
     42 C15         7.5200   -3.1080    1.3670 c3        1 MOL     -0.497240
     43 C16         8.3490   -1.8770    1.1120 c         1 MOL      0.828831
     44 O7          9.3040   -1.8150    0.3240 o         1 MOL     -0.732431
     45 O8          7.9830   -0.8320    1.7130 o         1 MOL     -0.732431
     46 H19         5.9390   -1.7190   -0.2800 hn        1 MOL      0.247678
     47 H20         7.5520   -4.0410   -0.4920 h1        1 MOL      0.068955
     48 H21         8.2240   -3.8780    1.6700 hc        1 MOL      0.129497
     49 H22         6.7940   -2.8360    2.1360 hc        1 MOL      0.129497
     50 N4          4.6620   -5.0200    0.7930 n         1 MOL     -0.516612
     51 C17         3.7480   -3.9370    1.2930 c3        1 MOL      0.054605
     52 C18         3.9890   -3.5130    2.8330 c         1 MOL      0.444684
     53 O9          4.9140   -3.9300    3.5390 o         1 MOL     -0.525344
     54 H23         4.4440   -5.9930    0.9300 hn        1 MOL      0.289101
     55 H24         2.7220   -4.2490    1.1090 h1        1 MOL      0.066149
     56 H25         3.9690   -3.0440    0.6960 h1        1 MOL      0.066149
     57 N5          3.2440   -2.5210    3.3480 n         1 MOL     -0.376048
     58 C19         2.0680   -1.9090    2.8290 c3        1 MOL      0.125672
     59 C20         2.3140   -1.2570    1.4680 c         1 MOL     -0.028737
     60 O10         3.4150   -0.7610    1.1180 o         1 MOL     -0.370159
     61 C21         1.5560   -0.8860    3.8840 c3        1 MOL     -0.310860
     62 C22         2.4260    0.4030    4.0180 c         1 MOL      0.848143
     63 O11         3.0910    0.4750    5.0740 o         1 MOL     -0.705570
     64 O12         2.3590    1.3300    3.1880 o         1 MOL     -0.705570
     65 H26         3.6110   -2.0560    4.1610 hn        1 MOL      0.274911
     66 H27         1.3600   -2.7320    2.7970 h1        1 MOL      0.035841
     67 H28         1.3520   -1.4060    4.8160 hc        1 MOL      0.076247
     68 H29         0.5920   -0.5580    3.4880 hc        1 MOL      0.076247
     69 N6          1.3420   -1.2300    0.5590 n         1 MOL     -0.123996
     70 C23        -0.0740   -1.5100    0.7830 c3        1 MOL      0.069580
     71 C24        -0.6110   -2.6820   -0.0320 c         1 MOL      0.490866
     72 O13         0.0370   -3.1480   -0.9580 o         1 MOL     -0.539763
     73 H30         1.6760   -0.7280   -0.2430 hn        1 MOL      0.225806
     74 H31        -0.6660   -0.6170    0.5790 h1        1 MOL      0.053024
     75 H32        -0.2440   -1.5690    1.8530 h1        1 MOL      0.053024
     76 N7         -1.7940   -3.1650    0.2970 n         1 MOL     -0.439352
     77 C25        -2.2580   -4.3710   -0.3310 c3        1 MOL      0.106246
     78 C26        -2.7180   -4.1630   -1.8330 c         1 MOL      0.513202
     79 O14        -2.7270   -5.1590   -2.4890 o         1 MOL     -0.532917
     80 C27        -3.2530   -5.0390    0.5520 c3        1 MOL     -0.213540
     81 C28        -4.5590   -4.2890    0.9090 c3        1 MOL     -0.114757
     82 C29        -5.8460   -5.1620    1.2060 c         1 MOL      0.652754
     83 N8         -7.0060   -4.5650    1.1570 n         1 MOL     -0.711965
     84 O15        -5.7880   -6.3230    1.4820 o         1 MOL     -0.576633
     85 H33        -2.3050   -2.8250    1.0920 hn        1 MOL      0.252213
     86 H34        -1.3780   -5.0100   -0.3920 h1        1 MOL      0.087257
     87 H35        -2.7850   -5.2670    1.5100 hc        1 MOL      0.073961
     88 H36        -3.4700   -5.9700    0.0400 hc        1 MOL      0.073961
     89 H37        -4.8150   -3.7780   -0.0110 hc        1 MOL      0.072560
     90 H38        -4.3270   -3.5720    1.6960 hc        1 MOL      0.072560
     91 H39        -7.0160   -3.5860    0.9160 hn        1 MOL      0.323492
     92 H40        -7.7260   -5.2290    0.9200 hn        1 MOL      0.323492
     93 N9         -2.9410   -2.9370   -2.3230 n         1 MOL     -0.210719
     94 C30        -3.3370   -2.6190   -3.6830 c3        1 MOL     -0.347641
     95 C31        -4.6530   -1.8280   -3.7410 c         1 MOL      0.661098
     96 O16        -5.2130   -1.6790   -4.8200 o         1 MOL     -0.555846
     97 C32        -2.1300   -1.9580   -4.4160 c3        1 MOL      0.223464
     98 C33        -1.0140   -3.0700   -4.6230 c3        1 MOL     -0.276873
     99 C34        -1.5120   -0.7130   -3.7530 c3        1 MOL     -0.276873
    100 H41        -2.9270   -2.2160   -1.6180 hn        1 MOL      0.195881
    101 H42        -3.5050   -3.5650   -4.2040 h1        1 MOL      0.155083
    102 H43        -2.4120   -1.6940   -5.4410 hc        1 MOL      0.001981
    103 H44        -0.1500   -2.6690   -5.1510 hc        1 MOL      0.080395
    104 H45        -0.7120   -3.4850   -3.6630 hc        1 MOL      0.080395
    105 H46        -1.3130   -3.9660   -5.1770 hc        1 MOL      0.080395
    106 H47        -2.2500    0.0790   -3.8640 hc        1 MOL      0.080395
    107 H48        -1.4070   -0.9500   -2.6920 hc        1 MOL      0.080395
    108 H49        -0.4840   -0.4950   -4.0350 hc        1 MOL      0.080395
    109 N10        -5.1320   -1.2080   -2.6250 n         1 MOL     -0.380421
    110 C35        -6.4100   -0.4130   -2.5790 c3        1 MOL      0.021508
    111 C36        -6.4850    0.8420   -1.6700 c         1 MOL      0.494432
    112 O17        -6.9960    1.9090   -2.0720 o         1 MOL     -0.559021
    113 C37        -7.5940   -1.3580   -2.2240 c3        1 MOL     -0.409439
    114 C38        -7.6820   -1.7640   -0.7370 c         1 MOL      0.652360
    115 N11        -8.8990   -1.7440   -0.1280 n         1 MOL     -0.803592
    116 O18        -6.6720   -1.9590   -0.0520 o         1 MOL     -0.565738
    117 H50        -4.5680   -1.2510   -1.7940 hn        1 MOL      0.182215
    118 H51        -6.5510    0.0510   -3.5530 h1        1 MOL      0.115531
    119 H52        -7.6040   -2.2900   -2.7880 hc        1 MOL      0.143140
    120 H53        -8.5860   -0.9240   -2.3680 hc        1 MOL      0.143140
    121 H54        -9.7120   -1.4220   -0.6350 hn        1 MOL      0.357592
    122 H55        -8.9330   -2.0020    0.8440 hn        1 MOL      0.357592
    123 N12        -5.9840    0.7670   -0.4760 n         1 MOL     -0.259213
    124 C39        -5.9580    1.8190    0.5170 c3        1 MOL     -0.045879
    125 C40        -4.6300    2.6280    0.3890 c         1 MOL      0.644307
    126 O19        -3.6400    2.1160   -0.1150 o         1 MOL     -0.531161
    127 C41        -6.1060    1.2790    1.9280 c3        1 MOL     -0.124592
    128 C42        -7.3390    0.4620    2.2500 ca        1 MOL      0.132736
    129 C43        -7.2880   -0.8450    2.7590 ca        1 MOL     -0.190890
    130 C44        -8.6800    0.9820    2.1080 ca        1 MOL     -0.190890
    131 C45        -8.4090   -1.5670    3.0720 ca        1 MOL     -0.190327
    132 C46        -9.8300    0.2380    2.3010 ca        1 MOL     -0.190327
    133 C47        -9.6970   -1.0730    2.7050 ca        1 MOL      0.286567
    134 O20       -10.7610   -1.9040    2.8750 oh        1 MOL     -0.520976
    135 H56        -5.5280   -0.0920   -0.2210 hn        1 MOL      0.272575
    136 H57        -6.7910    2.4800    0.2650 h1        1 MOL      0.055008
    137 H58        -6.1620    2.2600    2.4090 hc        1 MOL      0.074945
    138 H59        -5.2530    0.7780    2.3810 hc        1 MOL      0.074945
    139 H60        -6.3400   -1.3120    3.0000 ha        1 MOL      0.135780
    140 H61        -8.8900    2.0120    1.8620 ha        1 MOL      0.135780
    141 H62        -8.2480   -2.5690    3.4530 ha        1 MOL      0.108080
    142 H63       -10.8200    0.6020    2.0780 ha        1 MOL      0.108080
    143 H64       -11.5540   -1.6720    2.3860 ho        1 MOL      0.371469
    144 N13        -4.6700    3.9450    0.8130 n         1 MOL     -0.720669
    145 C48        -3.5330    4.8440    1.1690 c3        1 MOL      0.265590
    146 C49        -2.7400    5.3490   -0.0630 c         1 MOL      0.388026
    147 O21        -2.4000    6.4950   -0.1140 o         1 MOL     -0.532358
    148 C50        -2.6560    4.3370    2.3290 c3        1 MOL     -0.008570
    149 C51        -3.2830    4.4000    3.6940 c3        1 MOL     -0.140187
    150 C52        -2.5320    3.5960    4.7590 c         1 MOL      0.680999
    151 O22        -2.7670    2.3550    4.9110 o         1 MOL     -0.699409
    152 O23        -1.8090    4.2290    5.5730 o         1 MOL     -0.699409
    153 H65        -5.5700    4.2820    1.1250 hn        1 MOL      0.362870
    154 H66        -3.9710    5.7730    1.5200 h1        1 MOL      0.003169
    155 H67        -1.8700    5.0950    2.3620 hc        1 MOL      0.051651
    156 H68        -2.1520    3.3900    2.2020 hc        1 MOL      0.051651
    157 H69        -4.2470    3.9090    3.5980 hc        1 MOL     -0.018014
    158 H70        -3.4820    5.4320    3.9760 hc        1 MOL     -0.018014
    159 N14        -2.3320    4.4690   -0.9530 n         1 MOL     -0.285020
    160 C53        -1.1170    4.6670   -1.8060 c3        1 MOL     -0.182473
    161 C54        -1.4500    5.5080   -3.0590 c         1 MOL      0.487422
    162 O24        -0.5140    5.8610   -3.8130 o         1 MOL     -0.572045
    163 C55        -0.4780    3.3090   -2.2530 c3        1 MOL     -0.077333
    164 C56         0.0070    2.3300   -1.1830 c3        1 MOL      0.372130
    165 C57         1.1630    2.8210   -0.4190 c         1 MOL      0.572999
    166 O25         2.0240    2.0030   -0.0090 o         1 MOL     -0.629259
    167 O26         1.2770    4.0280   -0.1680 o         1 MOL     -0.629259
    168 H71        -2.7700    3.5740   -0.8330 hn        1 MOL      0.248661
    169 H72        -0.3540    5.1070   -1.1710 h1        1 MOL      0.202924
    170 H73         0.4350    3.4590   -2.8250 hc        1 MOL      0.009709
    171 H74        -1.2020    2.7550   -2.8500 hc        1 MOL      0.009709
    172 H75         0.1400    1.3120   -1.5540 hc        1 MOL     -0.143008
    173 H76        -0.7900    2.2650   -0.4290 hc        1 MOL     -0.143008
    174 N15        -2.6870    5.6700   -3.2870 n         1 MOL     -0.206452
    175 C58        -3.2370    6.6400   -4.2820 c3        1 MOL     -0.161088
    176 H77        -3.8400    6.1050   -5.0150 h1        1 MOL      0.078538
    177 H78        -3.8560    7.3760   -3.7680 h1        1 MOL      0.078538
    178 H79        -2.4150    7.1470   -4.7880 h1        1 MOL      0.078538
    179 H80        -3.3150    5.3320   -2.5780 hn        1 MOL      0.202544
    180 Ca1         4.2990    1.7100    1.3800 Ca        1 MOL      1.657771
    181 O27         5.4480    2.8360    3.6410 oh        1 MOL     -0.813620
    182 H81         5.7350    2.5280    4.4980 ho        1 MOL      0.376737
    183 H82         6.2430    2.9030    3.1300 ho        1 MOL      0.376737
    184 O28         5.7160   -0.0590    2.7310 oh        1 MOL     -0.813620
    185 H83         6.4730   -0.4260    2.2800 ho        1 MOL      0.376737
    186 H84         5.9780   -0.0190    3.6500 ho        1 MOL      0.376737
    187 O29         3.3930    4.2710    1.4300 oh        1 MOL     -0.813620
    188 H85         2.6530    4.2270    0.8200 ho        1 MOL      0.376737
    189 H86         3.0340    4.7140    2.2080 ho        1 MOL      0.376737
@<TRIPOS>BOND
     1    1    2 1   
     2    1    4 1   
     3    1    5 1   
     4    1    6 1   
     5    2    3 2   
     6    2    7 1   
     7    7    8 1   
     8    7   15 1   
     9    8    9 1   
    10    8   11 1   
    11    8   16 1   
    12    9   10 2   
    13    9   19 1   
    14   11   12 1   
    15   11   17 1   
    16   11   18 1   
    17   12   13 1   
    18   12   14 1   
    19   19   20 1   
    20   19   27 1   
    21   20   21 1   
    22   20   23 1   
    23   20   28 1   
    24   21   22 2   
    25   21   38 1   
    26   23   24 1   
    27   23   25 1   
    28   23   29 1   
    29   24   26 1   
    30   24   30 1   
    31   24   31 1   
    32   25   32 1   
    33   25   33 1   
    34   25   34 1   
    35   26   35 1   
    36   26   36 1   
    37   26   37 1   
    38   38   39 1   
    39   38   46 1   
    40   39   40 1   
    41   39   42 1   
    42   39   47 1   
    43   40   41 2   
    44   40   50 1   
    45   42   43 1   
    46   42   48 1   
    47   42   49 1   
    48   43   44 1   
    49   43   45 1   
    50   50   51 1   
    51   50   54 1   
    52   51   52 1   
    53   51   55 1   
    54   51   56 1   
    55   52   53 2   
    56   52   57 1   
    57   57   58 1   
    58   57   65 1   
    59   58   59 1   
    60   58   61 1   
    61   58   66 1   
    62   59   60 2   
    63   59   69 1   
    64   61   62 1   
    65   61   67 1   
    66   61   68 1   
    67   62   63 1   
    68   62   64 1   
    69   69   70 1   
    70   69   73 1   
    71   70   71 1   
    72   70   74 1   
    73   70   75 1   
    74   71   72 2   
    75   71   76 1   
    76   76   77 1   
    77   76   85 1   
    78   77   78 1   
    79   77   80 1   
    80   77   86 1   
    81   78   79 2   
    82   78   93 1   
    83   80   81 1   
    84   80   87 1   
    85   80   88 1   
    86   81   82 1   
    87   81   89 1   
    88   81   90 1   
    89   82   83 1   
    90   82   84 2   
    91   83   91 1   
    92   83   92 1   
    93   93   94 1   
    94   93  100 1   
    95   94   95 1   
    96   94   97 1   
    97   94  101 1   
    98   95   96 2   
    99   95  109 1   
   100   97   98 1   
   101   97   99 1   
   102   97  102 1   
   103   98  103 1   
   104   98  104 1   
   105   98  105 1   
   106   99  106 1   
   107   99  107 1   
   108   99  108 1   
   109  109  110 1   
   110  109  117 1   
   111  110  111 1   
   112  110  113 1   
   113  110  118 1   
   114  111  112 2   
   115  111  123 1   
   116  113  114 1   
   117  113  119 1   
   118  113  120 1   
   119  114  115 1   
   120  114  116 2   
   121  115  121 1   
   122  115  122 1   
   123  123  124 1   
   124  123  135 1   
   125  124  125 1   
   126  124  127 1   
   127  124  136 1   
   128  125  126 2   
   129  125  144 1   
   130  127  128 1   
   131  127  137 1   
   132  127  138 1   
   133  128  129 ar  
   134  128  130 ar  
   135  129  131 ar  
   136  129  139 1   
   137  130  132 ar  
   138  130  140 1   
   139  131  133 ar  
   140  131  141 1   
   141  132  133 ar  
   142  132  142 1   
   143  133  134 1   
   144  134  143 1   
   145  144  145 1   
   146  144  153 1   
   147  145  146 1   
   148  145  148 1   
   149  145  154 1   
   150  146  147 2   
   151  146  159 1   
   152  148  149 1   
   153  148  155 1   
   154  148  156 1   
   155  149  150 1   
   156  149  157 1   
   157  149  158 1   
   158  150  151 1   
   159  150  152 1   
   160  159  160 1   
   161  159  168 1   
   162  160  161 1   
   163  160  163 1   
   164  160  169 1   
   165  161  162 2   
   166  161  174 1   
   167  163  164 1   
   168  163  170 1   
   169  163  171 1   
   170  164  165 1   
   171  164  172 1   
   172  164  173 1   
   173  165  166 1   
   174  165  167 1   
   175  174  175 1   
   176  174  179 1   
   177  175  176 1   
   178  175  177 1   
   179  175  178 1   
   180  181  182 1   
   181  181  183 1   
   182  184  185 1   
   183  184  186 1   
   184  187  188 1   
   185  187  189 1   
@<TRIPOS>SUBSTRUCTURE
     1 MOL         1 TEMP              0 ****  ****    0 ROOT
