@<TRIPOS>MOLECULE
MOL
  185   180     1     0     0
SMALL
resp


@<TRIPOS>ATOM
      1 C1         -5.7580    0.7510   -3.5110 c3        1 MOL     -0.435445
      2 C2         -6.4520    0.8610   -2.1510 c         1 MOL      0.645414
      3 O1         -5.8430    0.8550   -1.1090 o         1 MOL     -0.436166
      4 H1         -6.4620    1.0210   -4.2990 hc        1 MOL      0.120912
      5 H2         -4.9050    1.4280   -3.5390 hc        1 MOL      0.120912
      6 H3         -5.4160   -0.2730   -3.6630 hc        1 MOL      0.120912
      7 N1         -7.8130    1.0000   -2.0610 n         1 MOL     -0.609057
      8 C3         -8.5770    1.1700   -0.8620 c3        1 MOL      0.015769
      9 C4         -8.3580    0.0410    0.1980 c         1 MOL      0.612611
     10 O2         -8.7390    0.1730    1.3740 o         1 MOL     -0.526269
     11 C5         -8.4770    2.5940   -0.2810 c3        1 MOL     -0.238160
     12 C6         -8.9130    3.7210   -1.2600 c         1 MOL      0.859800
     13 O3         -8.1100    4.5350   -1.6570 o         1 MOL     -0.733629
     14 O4        -10.1190    3.8220   -1.4500 o         1 MOL     -0.733629
     15 H4         -8.3260    1.0640   -2.9290 hn        1 MOL      0.332963
     16 H5         -9.5950    1.1440   -1.2500 h1        1 MOL      0.026406
     17 H6         -7.4570    2.7110    0.0920 hc        1 MOL      0.056539
     18 H7         -9.1700    2.6860    0.5620 hc        1 MOL      0.056539
     19 N2         -7.9300   -1.1360   -0.2950 n         1 MOL     -0.570045
     20 C7         -7.6380   -2.4240    0.3580 c3        1 MOL      0.291137
     21 C8         -6.1620   -2.8850    0.2140 c         1 MOL      0.377084
     22 O5         -5.9160   -4.1080    0.3810 o         1 MOL     -0.534202
     23 C9         -8.7210   -3.5010   -0.2660 c3        1 MOL     -0.019461
     24 C10       -10.2160   -3.4360    0.0340 c3        1 MOL      0.073427
     25 C11       -11.0520   -2.5260   -0.8570 c3        1 MOL     -0.117935
     26 C12       -12.5270   -2.6530   -0.5720 c3        1 MOL      0.041202
     27 N3        -13.3170   -1.8960   -1.5700 n4        1 MOL     -0.241551
     28 H8         -7.8380   -1.1930   -1.2980 hn        1 MOL      0.233695
     29 H9         -7.8220   -2.3990    1.4330 h1        1 MOL      0.061206
     30 H10        -8.4390   -4.4770    0.1210 hc        1 MOL      0.002029
     31 H11        -8.6190   -3.4780   -1.3470 hc        1 MOL      0.002029
     32 H12       -10.3910   -3.1570    1.0690 hc        1 MOL      0.005883
     33 H13       -10.6630   -4.4210   -0.0900 hc        1 MOL      0.005883
     34 H14       -10.8330   -2.8010   -1.8830 hc        1 MOL      0.052285
     35 H15       -10.7610   -1.4970   -0.6030 hc        1 MOL      0.052285
     36 H16       -12.8080   -2.2700    0.4160 hx        1 MOL      0.082635
     37 H17       -12.8740   -3.6720   -0.7310 hx        1 MOL      0.082635
     38 H18       -12.8640   -1.0110   -1.7160 hn        1 MOL      0.293901
     39 H19       -13.3090   -2.3870   -2.4440 hn        1 MOL      0.293901
     40 H20       -14.2850   -1.8500   -1.2780 hn        1 MOL      0.293901
     41 N4         -5.2140   -1.9890   -0.1330 n         1 MOL     -0.352086
     42 C13        -3.7960   -2.2330    0.1220 c3        1 MOL      0.055099
     43 C14        -3.4370   -2.7120    1.5870 c         1 MOL      0.618658
     44 O6         -3.9840   -2.2020    2.5260 o         1 MOL     -0.487325
     45 C15        -2.9480   -1.0610   -0.5330 c3        1 MOL     -0.202655
     46 C16        -1.4660   -1.3690   -0.4340 c         1 MOL      0.833070
     47 O7         -0.9750   -1.7650   -1.4550 o         1 MOL     -0.744985
     48 O8         -0.7480   -1.0700    0.5950 o         1 MOL     -0.744985
     49 H21        -5.5480   -1.1110   -0.4920 hn        1 MOL      0.233040
     50 H22        -3.4320   -3.1030   -0.4300 h1        1 MOL      0.024905
     51 H23        -3.1210   -0.1100   -0.0350 hc        1 MOL      0.072098
     52 H24        -3.2160   -1.0680   -1.5860 hc        1 MOL      0.072098
     53 N5         -2.4180   -3.5770    1.6810 n         1 MOL     -0.447848
     54 C17        -1.8190   -4.1910    2.8940 c3        1 MOL     -0.035062
     55 C18        -1.2560   -3.2150    3.9190 c         1 MOL      0.519521
     56 O9         -1.2950   -3.4390    5.1480 o         1 MOL     -0.533192
     57 H25        -2.0890   -4.0200    0.8370 hn        1 MOL      0.282893
     58 H26        -1.0520   -4.9000    2.5760 h1        1 MOL      0.092466
     59 H27        -2.5770   -4.8530    3.3240 h1        1 MOL      0.092466
     60 N6         -0.5310   -2.1820    3.3830 n         1 MOL     -0.377880
     61 C19         0.0230   -1.0580    4.1670 c3        1 MOL      0.301158
     62 C20        -0.6860    0.2570    3.8140 c         1 MOL      0.350711
     63 O10        -0.3020    1.3630    4.1320 o         1 MOL     -0.493183
     64 C21         1.5540   -1.0030    4.0270 c3        1 MOL     -0.390999
     65 C22         2.0750   -0.4560    2.7260 c         1 MOL      0.932768
     66 N7          2.3970    0.8040    2.7180 n         1 MOL     -0.767152
     67 O11         2.1760   -1.1340    1.7660 o         1 MOL     -0.753892
     68 H28        -0.6790   -2.0870    2.3920 hn        1 MOL      0.078741
     69 H29        -0.2930   -1.1970    5.2120 h1        1 MOL      0.083932
     70 H30         2.0750   -1.9390    4.2000 hc        1 MOL      0.097204
     71 H31         1.8420   -0.4310    4.9180 hc        1 MOL      0.097204
     72 H32         2.2450    1.4490    3.4760 hn        1 MOL      0.345155
     73 H33         2.5890    1.1580    1.7900 hn        1 MOL      0.345155
     74 N8         -1.9550    0.1620    3.2790 n         1 MOL     -0.238697
     75 C23        -2.6720    1.3210    2.7380 c3        1 MOL     -0.164133
     76 C24        -1.9120    2.2880    1.8610 c         1 MOL      0.492484
     77 O12        -2.2770    3.4320    1.9980 o         1 MOL     -0.498326
     78 H34        -2.3630   -0.7280    3.0450 hn        1 MOL      0.139994
     79 H35        -3.0560    1.9130    3.5740 h1        1 MOL      0.118493
     80 H36        -3.5340    0.9510    2.1860 h1        1 MOL      0.118493
     81 N9         -0.9490    1.7870    1.0910 n         1 MOL     -0.258321
     82 C25        -0.1610    2.6430    0.1860 c3        1 MOL      0.249203
     83 C26         1.2110    2.0410   -0.1290 c         1 MOL      0.158263
     84 O13         1.3550    0.8440   -0.1160 o         1 MOL     -0.372100
     85 C27        -0.8340    2.9440   -1.1790 c3        1 MOL      0.139594
     86 C28        -2.0890    3.8140   -1.1140 ca        1 MOL     -0.201565
     87 C29        -2.0440    5.2380   -0.9670 ca        1 MOL     -0.065958
     88 C30        -3.3230    3.1250   -1.0150 ca        1 MOL     -0.065958
     89 C31        -3.2800    5.9640   -1.0050 ca        1 MOL     -0.293048
     90 C32        -4.4840    3.8780   -0.8860 ca        1 MOL     -0.293048
     91 C33        -4.5150    5.2880   -0.9300 ca        1 MOL      0.434827
     92 O14        -5.6410    6.0130   -0.8650 oh        1 MOL     -0.536421
     93 H37        -0.7560    0.7930    1.0680 hn        1 MOL      0.145748
     94 H38         0.0440    3.5850    0.7070 h1        1 MOL      0.009923
     95 H39        -1.0650    1.9920   -1.6490 hc        1 MOL     -0.026066
     96 H40        -0.1720    3.5330   -1.8330 hc        1 MOL     -0.026066
     97 H41        -1.0740    5.7120   -0.9150 ha        1 MOL      0.087966
     98 H42        -3.4040    2.0490   -0.9100 ha        1 MOL      0.087966
     99 H43        -3.2410    7.0390   -0.9080 ha        1 MOL      0.147971
    100 H44        -5.4420    3.4060   -0.7920 ha        1 MOL      0.147971
    101 H45        -6.4120    5.4500   -0.8950 ho        1 MOL      0.411908
    102 N10         2.2680    2.8810   -0.3470 n         1 MOL     -0.324440
    103 C34         3.5780    2.5240   -0.9380 c3        1 MOL      0.092585
    104 C35         4.5510    2.2010    0.1630 c         1 MOL      0.169517
    105 O15         5.1810    1.2060    0.1260 o         1 MOL     -0.205122
    106 C36         4.0600    3.5550   -2.0350 c3        1 MOL      0.026072
    107 C37         2.9880    3.7110   -3.1520 c3        1 MOL     -0.109827
    108 C38         5.3720    3.0960   -2.6410 c3        1 MOL     -0.248739
    109 C39         2.5090    2.3580   -3.6660 c3        1 MOL      0.041016
    110 H46         2.0780    3.8710   -0.3660 hn        1 MOL      0.266426
    111 H47         3.3760    1.5710   -1.4250 h1        1 MOL      0.003933
    112 H48         4.1930    4.5160   -1.5350 hc        1 MOL      0.023605
    113 H49         3.3580    4.2620   -4.0160 hc        1 MOL      0.036792
    114 H50         2.1210    4.2530   -2.7870 hc        1 MOL      0.036792
    115 H51         6.0680    2.8800   -1.8250 hc        1 MOL      0.094275
    116 H52         5.2960    2.2490   -3.3130 hc        1 MOL      0.094275
    117 H53         5.8590    3.8590   -3.2400 hc        1 MOL      0.094275
    118 H54         1.8790    1.9060   -2.8990 hc        1 MOL      0.015077
    119 H55         1.8440    2.4780   -4.5260 hc        1 MOL      0.015077
    120 H56         3.2960    1.6660   -3.9510 hc        1 MOL      0.015077
    121 N11         4.7450    3.0720    1.2150 n         1 MOL     -0.373805
    122 C40         5.6520    2.7770    2.3240 c3        1 MOL      0.077034
    123 C41         7.1220    2.8210    1.9460 c         1 MOL      0.338086
    124 O16         7.9520    2.3460    2.7180 o         1 MOL     -0.482134
    125 C42         5.4220    3.8390    3.4200 c3        1 MOL      0.080549
    126 O17         4.1050    3.5470    3.9270 oh        1 MOL     -0.590169
    127 H57         4.1760    3.9040    1.2520 hn        1 MOL      0.299371
    128 H58         5.5370    1.8020    2.7800 h1        1 MOL      0.112244
    129 H59         5.5070    4.8550    3.0340 h1        1 MOL      0.061410
    130 H60         6.1920    3.6620    4.1760 h1        1 MOL      0.061410
    131 H61         4.0540    4.0080    4.7780 ho        1 MOL      0.405023
    132 N12         7.4380    3.1670    0.7480 n         1 MOL     -0.309439
    133 C43         8.6550    2.8570   -0.0590 c3        1 MOL      0.230667
    134 C44         9.0040    1.2990    0.0710 c         1 MOL      0.437258
    135 O18        10.2450    0.9400   -0.0150 o         1 MOL     -0.513710
    136 C45         9.7940    3.8460    0.2050 c3        1 MOL     -0.397313
    137 H62         6.8030    3.6790    0.1550 hn        1 MOL      0.221908
    138 H63         8.3490    3.0140   -1.0950 h1        1 MOL      0.020855
    139 H64        10.2070    3.6150    1.1840 hc        1 MOL      0.114825
    140 H65        10.6670    3.5740   -0.3850 hc        1 MOL      0.114825
    141 H66         9.5090    4.8890    0.0860 hc        1 MOL      0.114825
    142 N13         7.9300    0.4870   -0.0020 n         1 MOL     -0.348021
    143 C46         8.1030   -1.0080    0.2360 c3        1 MOL      0.302173
    144 C47         7.4030   -1.8220   -0.8770 c         1 MOL      0.488169
    145 O19         6.5280   -1.3040   -1.5450 o         1 MOL     -0.500345
    146 C48         7.4470   -1.2720    1.5950 c3        1 MOL     -0.212404
    147 H67         6.9660    0.7780   -0.1080 hn        1 MOL      0.016640
    148 H68         9.1470   -1.3030    0.1870 h1        1 MOL     -0.005234
    149 H69         7.5740   -2.3070    1.8960 hc        1 MOL      0.074892
    150 H70         7.9510   -0.6870    2.3700 hc        1 MOL      0.074892
    151 H71         6.3730   -1.1260    1.5640 hc        1 MOL      0.074892
    152 N14         7.6600   -3.1010   -0.9420 n         1 MOL     -0.624410
    153 C49         7.0680   -4.0700   -1.8990 c3        1 MOL     -0.091946
    154 C50         7.2510   -3.6760   -3.3670 c         1 MOL      0.463204
    155 O20         6.6650   -4.3160   -4.2350 o         1 MOL     -0.484241
    156 C51         5.6180   -4.2160   -1.6240 c3        1 MOL     -0.075330
    157 C52         5.2320   -4.5460   -0.1600 c3        1 MOL      0.096476
    158 C53         3.7420   -4.6490    0.1860 c         1 MOL      0.625519
    159 O21         3.2870   -5.7870    0.3500 o         1 MOL     -0.687841
    160 O22         3.1200   -3.5730    0.4110 o         1 MOL     -0.687841
    161 H72         8.2520   -3.4620   -0.2110 hn        1 MOL      0.357111
    162 H73         7.4850   -5.0530   -1.7100 h1        1 MOL      0.146429
    163 H74         5.2960   -4.9940   -2.3130 hc        1 MOL      0.060137
    164 H75         5.1260   -3.2740   -1.8910 hc        1 MOL      0.060137
    165 H76         5.7130   -3.8300    0.5100 hc        1 MOL     -0.031674
    166 H77         5.6860   -5.5130    0.0380 hc        1 MOL     -0.031674
    167 N15         8.1840   -2.7070   -3.7310 n         1 MOL     -0.316498
    168 C54         8.4590   -2.0900   -5.0480 c3        1 MOL     -0.010401
    169 H78         7.6490   -2.3280   -5.7370 h1        1 MOL      0.053475
    170 H79         8.5320   -1.0080   -4.9350 h1        1 MOL      0.053475
    171 H80         9.3980   -2.4790   -5.4430 h1        1 MOL      0.053475
    172 H81         8.6730   -2.2520   -2.9690 hn        1 MOL      0.245980
    173 Ca1         1.4190   -1.8370   -0.5230 Ca        1 MOL      1.742201
    174 O23         0.4850   -4.2560   -0.7240 oh        1 MOL     -0.841775
    175 H82         1.3330   -4.6710   -0.5460 ho        1 MOL      0.407345
    176 H83        -0.1570   -4.9630   -0.6150 ho        1 MOL      0.407345
    177 O24         2.0010   -3.0230   -2.8550 oh        1 MOL     -0.841775
    178 H84         1.6360   -3.8420   -3.2030 ho        1 MOL      0.407345
    179 H85         1.8000   -2.3710   -3.5210 ho        1 MOL      0.407345
    180 O25         3.8640   -1.0000   -0.8220 oh        1 MOL     -0.841775
    181 H86         4.6090   -1.4040   -1.2720 ho        1 MOL      0.407345
    182 H87         4.2300   -0.2080   -0.4240 ho        1 MOL      0.407345
    183 O26         0.6110   -0.5010   -2.9840 oh        1 MOL     -0.841775
    184 H88         0.3540    0.0010   -3.7550 ho        1 MOL      0.407345
    185 H89        -0.2170   -0.8300   -2.6300 ho        1 MOL      0.407345
@<TRIPOS>BOND
     1    1    2 1   
     2    1    4 1   
     3    1    5 1   
     4    1    6 1   
     5    2    3 2   
     6    2    7 1   
     7    7    8 1   
     8    7   15 1   
     9    8    9 1   
    10    8   11 1   
    11    8   16 1   
    12    9   10 2   
    13    9   19 1   
    14   11   12 1   
    15   11   17 1   
    16   11   18 1   
    17   12   13 1   
    18   12   14 1   
    19   19   20 1   
    20   19   28 1   
    21   20   21 1   
    22   20   23 1   
    23   20   29 1   
    24   21   22 2   
    25   21   41 1   
    26   23   24 1   
    27   23   30 1   
    28   23   31 1   
    29   24   25 1   
    30   24   32 1   
    31   24   33 1   
    32   25   26 1   
    33   25   34 1   
    34   25   35 1   
    35   26   27 1   
    36   26   36 1   
    37   26   37 1   
    38   27   38 1   
    39   27   39 1   
    40   27   40 1   
    41   41   42 1   
    42   41   49 1   
    43   42   43 1   
    44   42   45 1   
    45   42   50 1   
    46   43   44 2   
    47   43   53 1   
    48   45   46 1   
    49   45   51 1   
    50   45   52 1   
    51   46   47 1   
    52   46   48 1   
    53   53   54 1   
    54   53   57 1   
    55   54   55 1   
    56   54   58 1   
    57   54   59 1   
    58   55   56 2   
    59   55   60 1   
    60   60   61 1   
    61   60   68 1   
    62   61   62 1   
    63   61   64 1   
    64   61   69 1   
    65   62   63 2   
    66   62   74 1   
    67   64   65 1   
    68   64   70 1   
    69   64   71 1   
    70   65   66 1   
    71   65   67 2   
    72   66   72 1   
    73   66   73 1   
    74   74   75 1   
    75   74   78 1   
    76   75   76 1   
    77   75   79 1   
    78   75   80 1   
    79   76   77 2   
    80   76   81 1   
    81   81   82 1   
    82   81   93 1   
    83   82   83 1   
    84   82   85 1   
    85   82   94 1   
    86   83   84 2   
    87   83  102 1   
    88   85   86 1   
    89   85   95 1   
    90   85   96 1   
    91   86   87 ar  
    92   86   88 ar  
    93   87   89 ar  
    94   87   97 1   
    95   88   90 ar  
    96   88   98 1   
    97   89   91 ar  
    98   89   99 1   
    99   90   91 ar  
   100   90  100 1   
   101   91   92 1   
   102   92  101 1   
   103  102  103 1   
   104  102  110 1   
   105  103  104 1   
   106  103  106 1   
   107  103  111 1   
   108  104  105 2   
   109  104  121 1   
   110  106  107 1   
   111  106  108 1   
   112  106  112 1   
   113  107  109 1   
   114  107  113 1   
   115  107  114 1   
   116  108  115 1   
   117  108  116 1   
   118  108  117 1   
   119  109  118 1   
   120  109  119 1   
   121  109  120 1   
   122  121  122 1   
   123  121  127 1   
   124  122  123 1   
   125  122  125 1   
   126  122  128 1   
   127  123  124 2   
   128  123  132 1   
   129  125  126 1   
   130  125  129 1   
   131  125  130 1   
   132  126  131 1   
   133  132  133 1   
   134  132  137 1   
   135  133  134 1   
   136  133  136 1   
   137  133  138 1   
   138  134  135 2   
   139  134  142 1   
   140  136  139 1   
   141  136  140 1   
   142  136  141 1   
   143  142  143 1   
   144  142  147 1   
   145  143  144 1   
   146  143  146 1   
   147  143  148 1   
   148  144  145 2   
   149  144  152 1   
   150  146  149 1   
   151  146  150 1   
   152  146  151 1   
   153  152  153 1   
   154  152  161 1   
   155  153  154 1   
   156  153  156 1   
   157  153  162 1   
   158  154  155 2   
   159  154  167 1   
   160  156  157 1   
   161  156  163 1   
   162  156  164 1   
   163  157  158 1   
   164  157  165 1   
   165  157  166 1   
   166  158  159 1   
   167  158  160 1   
   168  167  168 1   
   169  167  172 1   
   170  168  169 1   
   171  168  170 1   
   172  168  171 1   
   173  174  175 1   
   174  174  176 1   
   175  177  178 1   
   176  177  179 1   
   177  180  181 1   
   178  180  182 1   
   179  183  184 1   
   180  183  185 1   
@<TRIPOS>SUBSTRUCTURE
     1 MOL         1 TEMP              0 ****  ****    0 ROOT
