@<TRIPOS>MOLECULE
MOL
  175   173     1     0     0
SMALL
resp


@<TRIPOS>ATOM
      1 C1         -6.5390    8.2180    2.0920 c3        1 MOL     -0.375192
      2 C2         -7.2310    7.3280    1.0400 c         1 MOL      0.721215
      3 O1         -7.1840    7.6720   -0.1390 o         1 MOL     -0.587413
      4 H1         -6.2630    7.6120    2.9550 hc        1 MOL      0.090047
      5 H2         -5.6430    8.6620    1.6590 hc        1 MOL      0.090047
      6 H3         -7.2230    9.0070    2.4060 hc        1 MOL      0.090047
      7 N1         -7.9630    6.2490    1.3730 n         1 MOL     -0.688784
      8 C3         -8.7080    5.4000    0.4120 c3        1 MOL      0.562844
      9 C4         -7.9860    4.0650    0.1200 c         1 MOL      0.479444
     10 O2         -8.3960    2.9300    0.3060 o         1 MOL     -0.503106
     11 C5        -10.1200    5.1930    0.8110 c3        1 MOL     -0.449235
     12 C6        -11.0020    4.4890   -0.2310 c         1 MOL      0.771470
     13 O3        -10.8170    4.6000   -1.4670 o         1 MOL     -0.737993
     14 O4        -11.8980    3.7570    0.1930 o         1 MOL     -0.737993
     15 H4         -8.1010    6.0960    2.3570 hn        1 MOL      0.303902
     16 H5         -8.7620    5.9520   -0.5320 h1        1 MOL     -0.046654
     17 H6        -10.6220    6.1640    0.9190 hc        1 MOL      0.058749
     18 H7        -10.0370    4.6500    1.7520 hc        1 MOL      0.058749
     19 N2         -6.7150    4.1540   -0.2990 n         1 MOL     -0.687116
     20 C7         -5.8940    3.1210   -0.8990 c3        1 MOL      0.354532
     21 C8         -5.1880    2.2500    0.1530 c         1 MOL      0.577290
     22 O5         -4.5460    2.7490    1.0830 o         1 MOL     -0.564177
     23 C9         -4.9250    3.8490   -1.8360 c3        1 MOL     -0.357058
     24 H8         -6.2930    5.0490   -0.0720 hn        1 MOL      0.294682
     25 H9         -6.5390    2.4990   -1.5190 h1        1 MOL      0.085038
     26 H10        -5.4770    4.3000   -2.6630 hc        1 MOL      0.094788
     27 H11        -4.3310    4.5850   -1.2920 hc        1 MOL      0.094788
     28 H12        -4.3170    3.0990   -2.3320 hc        1 MOL      0.094788
     29 N3         -5.1370    0.9330   -0.0210 n         1 MOL     -0.491083
     30 C10        -5.7890    0.0280   -1.0390 c3        1 MOL     -0.136961
     31 C11        -5.9520   -1.4190   -0.4590 c         1 MOL      0.682026
     32 O6         -5.2720   -1.7980    0.4790 o         1 MOL     -0.506029
     33 C12        -4.9410   -0.0170   -2.3240 c3        1 MOL     -0.167245
     34 C13        -3.4570   -0.3150   -2.0490 c         1 MOL      0.783521
     35 O7         -2.6400    0.5950   -1.7500 o         1 MOL     -0.725970
     36 O8         -2.9760   -1.4350   -2.2430 o         1 MOL     -0.725970
     37 H13        -4.5900    0.4600    0.6900 hn        1 MOL      0.287360
     38 H14        -6.7920    0.3540   -1.3310 h1        1 MOL      0.086971
     39 H15        -5.0200    0.9420   -2.8550 hc        1 MOL      0.032158
     40 H16        -5.2800   -0.7850   -3.0070 hc        1 MOL      0.032158
     41 N4         -6.7850   -2.2350   -1.1450 n         1 MOL     -0.530005
     42 C14        -7.0640   -3.6560   -0.6920 c3        1 MOL      0.030917
     43 C15        -6.8720   -4.8630   -1.7040 c         1 MOL      0.496681
     44 O9         -7.8270   -5.5280   -2.1130 o         1 MOL     -0.535358
     45 H17        -7.1480   -2.0100   -2.0600 hn        1 MOL      0.342052
     46 H18        -8.0690   -3.6500   -0.2600 h1        1 MOL      0.059869
     47 H19        -6.4300   -3.8710    0.1650 h1        1 MOL      0.059869
     48 N5         -5.5800   -5.2150   -2.0030 n         1 MOL     -0.494157
     49 C16        -4.3240   -4.6150   -1.5230 c3        1 MOL      0.148385
     50 C17        -3.9710   -5.1820   -0.1060 c         1 MOL      0.380895
     51 O10        -3.5160   -6.3200   -0.0540 o         1 MOL     -0.528091
     52 C18        -3.2450   -4.8800   -2.4590 c3        1 MOL     -0.215386
     53 C19        -1.8950   -4.4210   -1.8720 c         1 MOL      0.578544
     54 N6         -0.7970   -4.9910   -2.3750 n         1 MOL     -0.684824
     55 O11        -1.7720   -3.6000   -0.9290 o         1 MOL     -0.633383
     56 H20        -5.4920   -5.8870   -2.7520 hn        1 MOL      0.308596
     57 H21        -4.5290   -3.5450   -1.5660 h1        1 MOL      0.072199
     58 H22        -3.4330   -4.2620   -3.3390 hc        1 MOL      0.069685
     59 H23        -3.2520   -5.9120   -2.8020 hc        1 MOL      0.069685
     60 H24        -0.9010   -5.7790   -2.9930 hn        1 MOL      0.348403
     61 H25         0.1120   -4.6310   -2.0880 hn        1 MOL      0.348403
     62 N7         -4.0380   -4.3920    0.9130 n         1 MOL      0.015543
     63 C20        -3.8330   -4.6580    2.3330 c3        1 MOL     -0.417265
     64 C21        -2.3850   -4.7360    2.8380 c         1 MOL      0.719397
     65 O12        -2.1920   -5.1440    3.9730 o         1 MOL     -0.565004
     66 H26        -4.3880   -3.4920    0.6050 hn        1 MOL      0.112799
     67 H27        -4.3010   -5.6160    2.5370 h1        1 MOL      0.140735
     68 H28        -4.3450   -3.8650    2.8820 h1        1 MOL      0.140735
     69 N8         -1.3980   -4.2390    2.0290 n         1 MOL     -0.528007
     70 C22         0.0690   -4.3370    2.4130 c3        1 MOL     -0.043541
     71 C23         0.8860   -3.0780    2.1240 c         1 MOL      0.491909
     72 O13         0.5660   -2.3310    1.2450 o         1 MOL     -0.480937
     73 C24         0.7160   -5.6060    1.8210 c3        1 MOL      0.269905
     74 C25         0.0960   -6.8640    2.4320 c3        1 MOL     -0.439833
     75 O14         0.5550   -5.6960    0.3830 oh        1 MOL     -0.566176
     76 H29        -1.5690   -4.0390    1.0520 hn        1 MOL      0.381814
     77 H30         0.0070   -4.4650    3.4930 h1        1 MOL      0.066608
     78 H31         1.7650   -5.5580    2.1100 h1        1 MOL      0.015170
     79 H32         1.2040   -5.1990   -0.1300 ho        1 MOL      0.415042
     80 H33        -0.8110   -7.0260    1.8390 hc        1 MOL      0.117968
     81 H34         0.7780   -7.7100    2.3330 hc        1 MOL      0.117968
     82 H35        -0.1760   -6.7750    3.4760 hc        1 MOL      0.117968
     83 N9          2.0170   -2.9380    2.8540 n         1 MOL     -0.449871
     84 C26         2.9510   -1.8400    2.6260 c3        1 MOL      0.140361
     85 C27         3.9170   -2.2840    1.5140 c         1 MOL      0.287670
     86 O15         4.9340   -2.9760    1.7370 o         1 MOL     -0.572917
     87 C28         3.7570   -1.3790    3.9250 c3        1 MOL      0.184309
     88 C29         4.6370   -0.1630    3.5040 c3        1 MOL      0.183011
     89 C30         2.7880   -1.1230    5.1550 c3        1 MOL     -0.308607
     90 C31         5.8350    0.1560    4.4450 c3        1 MOL     -0.168166
     91 H36         2.4170   -3.7420    3.3000 hn        1 MOL      0.292982
     92 H37         2.4180   -0.9720    2.2450 h1        1 MOL      0.019654
     93 H38         4.3570   -2.2300    4.2600 hc        1 MOL     -0.025229
     94 H39         3.9500    0.6840    3.4100 hc        1 MOL     -0.064978
     95 H40         5.1240   -0.3070    2.5410 hc        1 MOL     -0.064978
     96 H41         3.3950   -0.6940    5.9500 hc        1 MOL      0.072083
     97 H42         2.1120   -0.2900    4.9620 hc        1 MOL      0.072083
     98 H43         2.2870   -2.0270    5.4790 hc        1 MOL      0.072083
     99 H44         5.4860    0.5120    5.4180 hc        1 MOL      0.022298
    100 H45         6.5120   -0.6900    4.5480 hc        1 MOL      0.022298
    101 H46         6.3720    0.9540    3.9410 hc        1 MOL      0.022298
    102 N10         3.5850   -2.0450    0.2450 n         1 MOL     -0.049638
    103 C32         4.3640   -2.6090   -0.8760 c3        1 MOL      0.078782
    104 C33         5.6790   -1.8830   -1.1560 c         1 MOL      0.500560
    105 O16         6.4430   -2.3100   -2.0300 o         1 MOL     -0.549145
    106 C34         3.4790   -2.8130   -2.1110 c3        1 MOL     -0.297773
    107 C35         2.0890   -3.3940   -1.7730 c         1 MOL      0.827798
    108 O17         2.0300   -4.5570   -1.3560 o         1 MOL     -0.724112
    109 O18         1.1290   -2.6260   -1.9930 o         1 MOL     -0.724112
    110 H47         2.7870   -1.5080   -0.0700 hn        1 MOL      0.042093
    111 H48         4.6580   -3.5870   -0.4870 h1        1 MOL      0.083849
    112 H49         3.9520   -3.5060   -2.8030 hc        1 MOL      0.067871
    113 H50         3.3100   -1.8710   -2.6200 hc        1 MOL      0.067871
    114 N11         6.0590   -0.8340   -0.4020 n         1 MOL     -0.450716
    115 C36         7.0630    0.0980   -0.8040 c3        1 MOL      0.314563
    116 C37         6.6940    1.6320   -0.4270 c         1 MOL      0.196180
    117 O19         6.4020    2.0340    0.7310 o         1 MOL     -0.450965
    118 C38         8.3890   -0.1970   -0.0930 c3        1 MOL     -0.183294
    119 C39         9.4710    0.7010   -0.6640 ca        1 MOL      0.052250
    120 C40         9.8540    1.9850   -0.1610 ca        1 MOL     -0.158164
    121 C41        10.0970    0.1720   -1.7670 ca        1 MOL     -0.158164
    122 C42        10.9090    2.7400   -0.7430 ca        1 MOL     -0.084478
    123 C43        11.0140    1.0130   -2.4380 ca        1 MOL     -0.084478
    124 C44        11.4210    2.2620   -1.9750 ca        1 MOL     -0.149363
    125 H51         5.4710   -0.5580    0.3740 hn        1 MOL      0.275840
    126 H52         7.2490    0.0820   -1.8690 h1        1 MOL     -0.012977
    127 H53         8.7900   -1.2080   -0.0820 hc        1 MOL      0.098158
    128 H54         8.2420   -0.0570    0.9790 hc        1 MOL      0.098158
    129 H55         9.3270    2.3000    0.7240 ha        1 MOL      0.128280
    130 H56         9.9660   -0.8560   -2.0650 ha        1 MOL      0.128280
    131 H57        11.2290    3.6650   -0.2770 ha        1 MOL      0.095465
    132 H58        11.5940    0.6270   -3.2640 ha        1 MOL      0.095465
    133 H59        12.1590    2.8880   -2.4510 ha        1 MOL      0.109531
    134 N12         6.6970    2.5410   -1.4650 n         1 MOL      0.019170
    135 C45         6.8070    3.9880   -1.2090 c3        1 MOL      0.062865
    136 C46         5.4910    4.6580   -0.6340 c         1 MOL      0.541112
    137 O20         5.5360    5.8320   -0.2680 o         1 MOL     -0.566551
    138 C47         7.5210    4.7140   -2.4140 c3        1 MOL     -0.235421
    139 C48         7.1760    3.7630   -3.4920 c3        1 MOL      0.093890
    140 C49         7.0150    2.4170   -2.9190 c3        1 MOL     -0.347054
    141 H60         7.4360    4.0760   -0.3240 h1        1 MOL      0.037027
    142 H61         7.1220    5.7160   -2.5450 hc        1 MOL      0.093352
    143 H62         8.5460    4.7950   -2.0530 hc        1 MOL      0.093352
    144 H63         6.1730    4.0890   -3.7850 hc        1 MOL      0.028909
    145 H64         7.8690    3.6850   -4.3220 hc        1 MOL      0.028909
    146 H65         6.1550    1.9770   -3.4280 h1        1 MOL      0.142989
    147 H66         7.9370    1.8330   -2.9210 h1        1 MOL      0.142989
    148 N13         4.3540    3.9510   -0.5310 n         1 MOL     -0.448758
    149 C50         3.1570    4.2800    0.2250 c3        1 MOL     -0.009380
    150 C51         3.3470    4.4330    1.7650 c         1 MOL      0.417692
    151 O21         2.4460    4.9140    2.4520 o         1 MOL     -0.520151
    152 C52         2.0710    3.2490   -0.0530 c3        1 MOL     -0.129218
    153 C53         2.3750    1.9890    0.7350 c3        1 MOL     -0.197356
    154 C54         1.4190    0.8790    0.1740 c         1 MOL      0.712957
    155 O22         1.8240   -0.0010   -0.6260 o         1 MOL     -0.716302
    156 O23         0.2550    0.7760    0.5630 o         1 MOL     -0.716302
    157 H67         4.3100    3.0360   -0.9470 hn        1 MOL      0.257472
    158 H68         2.8080    5.2610   -0.0970 h1        1 MOL      0.117320
    159 H69         1.9850    3.0080   -1.1120 hc        1 MOL      0.083267
    160 H70         1.1620    3.7790    0.2220 hc        1 MOL      0.083267
    161 H71         2.1660    2.1630    1.7860 hc        1 MOL      0.081704
    162 H72         3.4170    1.6910    0.6580 hc        1 MOL      0.081704
    163 N14         4.5630    4.2980    2.2650 n         1 MOL     -0.135236
    164 C55         5.0150    4.8460    3.5980 c3        1 MOL     -0.123498
    165 H73         5.1330    4.0260    4.3060 h1        1 MOL      0.073882
    166 H74         5.9690    5.3600    3.4760 h1        1 MOL      0.073882
    167 H75         4.2700    5.5470    3.9750 h1        1 MOL      0.073882
    168 H76         5.2430    3.8300    1.6840 hn        1 MOL      0.174170
    169 Ca1        -0.6150   -1.1360   -0.9310 Ca        1 MOL      1.778284
    170 O24        -2.5440   -0.9890    0.9560 oh        1 MOL     -0.885096
    171 H77        -3.3550   -1.4120    1.2430 ho        1 MOL      0.421740
    172 H78        -2.2480   -0.4940    1.7210 ho        1 MOL      0.421740
    173 O25        -0.0830    0.0750   -3.2910 oh        1 MOL     -0.885096
    174 H79        -0.4520   -0.1060   -4.1540 ho        1 MOL      0.421740
    175 H80         0.5860    0.7420   -3.4540 ho        1 MOL      0.421740
@<TRIPOS>BOND
     1    1    2 1   
     2    1    4 1   
     3    1    5 1   
     4    1    6 1   
     5    2    3 2   
     6    2    7 1   
     7    7    8 1   
     8    7   15 1   
     9    8    9 1   
    10    8   11 1   
    11    8   16 1   
    12    9   10 2   
    13    9   19 1   
    14   11   12 1   
    15   11   17 1   
    16   11   18 1   
    17   12   13 1   
    18   12   14 1   
    19   19   20 1   
    20   19   24 1   
    21   20   21 1   
    22   20   23 1   
    23   20   25 1   
    24   21   22 2   
    25   21   29 1   
    26   23   26 1   
    27   23   27 1   
    28   23   28 1   
    29   29   30 1   
    30   29   37 1   
    31   30   31 1   
    32   30   33 1   
    33   30   38 1   
    34   31   32 2   
    35   31   41 1   
    36   33   34 1   
    37   33   39 1   
    38   33   40 1   
    39   34   35 1   
    40   34   36 1   
    41   41   42 1   
    42   41   45 1   
    43   42   43 1   
    44   42   46 1   
    45   42   47 1   
    46   43   44 2   
    47   43   48 1   
    48   48   49 1   
    49   48   56 1   
    50   49   50 1   
    51   49   52 1   
    52   49   57 1   
    53   50   51 2   
    54   50   62 1   
    55   52   53 1   
    56   52   58 1   
    57   52   59 1   
    58   53   54 1   
    59   53   55 2   
    60   54   60 1   
    61   54   61 1   
    62   62   63 1   
    63   62   66 1   
    64   63   64 1   
    65   63   67 1   
    66   63   68 1   
    67   64   65 2   
    68   64   69 1   
    69   69   70 1   
    70   69   76 1   
    71   70   71 1   
    72   70   73 1   
    73   70   77 1   
    74   71   72 2   
    75   71   83 1   
    76   73   74 1   
    77   73   75 1   
    78   73   78 1   
    79   74   80 1   
    80   74   81 1   
    81   74   82 1   
    82   75   79 1   
    83   83   84 1   
    84   83   91 1   
    85   84   85 1   
    86   84   87 1   
    87   84   92 1   
    88   85   86 2   
    89   85  102 1   
    90   87   88 1   
    91   87   89 1   
    92   87   93 1   
    93   88   90 1   
    94   88   94 1   
    95   88   95 1   
    96   89   96 1   
    97   89   97 1   
    98   89   98 1   
    99   90   99 1   
   100   90  100 1   
   101   90  101 1   
   102  102  103 1   
   103  102  110 1   
   104  103  104 1   
   105  103  106 1   
   106  103  111 1   
   107  104  105 2   
   108  104  114 1   
   109  106  107 1   
   110  106  112 1   
   111  106  113 1   
   112  107  108 1   
   113  107  109 1   
   114  114  115 1   
   115  114  125 1   
   116  115  116 1   
   117  115  118 1   
   118  115  126 1   
   119  116  117 2   
   120  116  134 1   
   121  118  119 1   
   122  118  127 1   
   123  118  128 1   
   124  119  120 ar  
   125  119  121 ar  
   126  120  122 ar  
   127  120  129 1   
   128  121  123 ar  
   129  121  130 1   
   130  122  124 ar  
   131  122  131 1   
   132  123  124 ar  
   133  123  132 1   
   134  124  133 1   
   135  134  135 1   
   136  134  140 1   
   137  135  136 1   
   138  135  138 1   
   139  135  141 1   
   140  136  137 2   
   141  136  148 1   
   142  138  139 1   
   143  138  142 1   
   144  138  143 1   
   145  139  140 1   
   146  139  144 1   
   147  139  145 1   
   148  140  146 1   
   149  140  147 1   
   150  148  149 1   
   151  148  157 1   
   152  149  150 1   
   153  149  152 1   
   154  149  158 1   
   155  150  151 2   
   156  150  163 1   
   157  152  153 1   
   158  152  159 1   
   159  152  160 1   
   160  153  154 1   
   161  153  161 1   
   162  153  162 1   
   163  154  155 1   
   164  154  156 1   
   165  163  164 1   
   166  163  168 1   
   167  164  165 1   
   168  164  166 1   
   169  164  167 1   
   170  170  171 1   
   171  170  172 1   
   172  173  174 1   
   173  173  175 1   
@<TRIPOS>SUBSTRUCTURE
     1 MOL         1 TEMP              0 ****  ****    0 ROOT
