@<TRIPOS>MOLECULE
MOL
  192   187     1     0     0
SMALL
resp


@<TRIPOS>ATOM
      1 C1          9.4090    1.9910    1.0040 c3        1 MOL     -0.410517
      2 C2          8.2300    1.1780    0.4550 c         1 MOL      0.653391
      3 O1          7.1960    1.0270    1.1170 o         1 MOL     -0.604959
      4 H1          9.0550    2.9680    1.3320 hc        1 MOL      0.115193
      5 H2          9.8530    1.4630    1.8490 hc        1 MOL      0.115193
      6 H3         10.1570    2.1200    0.2220 hc        1 MOL      0.115193
      7 N1          8.3340    0.5920   -0.8150 n         1 MOL     -0.457567
      8 C3          7.3540   -0.1530   -1.6370 c3        1 MOL      0.095676
      9 C4          7.0170   -1.5810   -1.0930 c         1 MOL      0.328599
     10 O2          6.6720   -2.5230   -1.8520 o         1 MOL     -0.435710
     11 C5          7.8310   -0.2180   -3.0900 c3        1 MOL     -0.394512
     12 C6          9.3080   -0.6990   -3.2700 c         1 MOL      0.780173
     13 O3         10.1930    0.1490   -3.0660 o         1 MOL     -0.664036
     14 O4          9.6860   -1.8540   -3.5870 o         1 MOL     -0.664036
     15 H4          9.1940    0.7040   -1.3330 hn        1 MOL      0.213601
     16 H5          6.4200    0.4090   -1.5300 h1        1 MOL      0.134258
     17 H6          7.6030    0.8030   -3.4110 hc        1 MOL      0.108193
     18 H7          7.2000   -0.8630   -3.7150 hc        1 MOL      0.108193
     19 N2          6.8310   -1.6160    0.2230 n         1 MOL     -0.078694
     20 C7          6.4900   -2.9060    0.8950 c3        1 MOL      0.016611
     21 C8          5.1390   -3.4870    0.4800 c         1 MOL      0.588765
     22 O5          5.0190   -4.5920    0.0270 o         1 MOL     -0.538339
     23 C9          6.7540   -2.8290    2.4430 c3        1 MOL     -0.346587
     24 C10         8.2390   -2.8120    2.9170 c3        1 MOL      0.179606
     25 C11         8.8520   -4.2410    2.9500 c3        1 MOL     -0.038161
     26 C12        10.2400   -4.4080    3.6630 c3        1 MOL     -0.040522
     27 N3         11.3240   -4.4350    2.6760 n4        1 MOL     -0.370338
     28 H8          7.1140   -0.7910    0.7220 hn        1 MOL      0.131302
     29 H9          7.2140   -3.6130    0.4990 h1        1 MOL      0.022652
     30 H10         6.0580   -3.5700    2.8220 hc        1 MOL      0.098089
     31 H11         6.3590   -1.8640    2.7590 hc        1 MOL      0.098089
     32 H12         8.3230   -2.3320    3.8960 hc        1 MOL     -0.013292
     33 H13         8.7960   -2.2180    2.1890 hc        1 MOL     -0.013292
     34 H14         9.0530   -4.6700    1.9690 hc        1 MOL      0.061938
     35 H15         8.2060   -4.9110    3.5090 hc        1 MOL      0.061938
     36 H16        10.1480   -5.3370    4.2190 hx        1 MOL      0.091661
     37 H17        10.3720   -3.5820    4.3680 hx        1 MOL      0.091661
     38 H18        11.4350   -3.6140    2.0880 hn        1 MOL      0.317151
     39 H19        12.1890   -4.5870    3.1780 hn        1 MOL      0.317151
     40 H20        11.1270   -5.1770    2.0200 hn        1 MOL      0.317151
     41 N4          3.9970   -2.7800    0.6890 n         1 MOL     -0.469075
     42 C13         3.8420   -1.4430    1.3250 c3        1 MOL      0.157426
     43 C14         4.0000   -0.3420    0.2740 c         1 MOL      0.207875
     44 O6          4.1370   -0.6480   -0.8890 o         1 MOL     -0.432949
     45 C15         2.4820   -1.3620    2.0040 c3        1 MOL     -0.370954
     46 C16         1.2520   -1.9590    1.2270 c         1 MOL      0.832552
     47 O7          0.5670   -1.1210    0.6360 o         1 MOL     -0.739014
     48 O8          0.9780   -3.2010    1.2590 o         1 MOL     -0.739014
     49 H21         3.1140   -3.1430    0.3570 hn        1 MOL      0.351506
     50 H22         4.6010   -1.1630    2.0480 h1        1 MOL      0.059542
     51 H23         2.2270   -0.3790    2.4080 hc        1 MOL      0.069985
     52 H24         2.5800   -1.9760    2.9000 hc        1 MOL      0.069985
     53 N5          4.0320    0.9150    0.7910 n         1 MOL     -0.304684
     54 C17         4.1480    2.0910   -0.0870 c3        1 MOL     -0.005870
     55 C18         2.8480    2.6860   -0.5650 c         1 MOL      0.459403
     56 O9          1.7400    2.1870   -0.4050 o         1 MOL     -0.513240
     57 H25         4.0790    0.9850    1.8010 hn        1 MOL      0.289201
     58 H26         4.8090    1.8230   -0.9090 h1        1 MOL      0.077174
     59 H27         4.7860    2.8040    0.4360 h1        1 MOL      0.077174
     60 N6          2.9360    3.6810   -1.3630 n         1 MOL     -0.504505
     61 C19         1.9530    4.5320   -2.0840 c3        1 MOL      0.369226
     62 C20         2.4220    5.9920   -2.0190 c         1 MOL      0.404470
     63 O10         3.6350    6.2620   -1.8770 o         1 MOL     -0.536112
     64 C21         1.6190    4.0050   -3.5230 c3        1 MOL     -0.476228
     65 C22         1.1470    2.5610   -3.5740 c         1 MOL      0.780427
     66 O11         0.1030    2.1830   -2.9840 o         1 MOL     -0.679331
     67 O12         1.7820    1.7640   -4.3390 o         1 MOL     -0.679331
     68 H28         3.8680    3.9620   -1.6310 hn        1 MOL      0.288310
     69 H29         1.0170    4.5090   -1.5310 h1        1 MOL      0.040717
     70 H30         2.5550    4.0280   -4.0770 hc        1 MOL      0.112852
     71 H31         0.9390    4.6460   -4.0890 hc        1 MOL      0.112852
     72 N7          1.5080    6.9500   -1.9160 n         1 MOL     -0.376037
     73 C23         0.0600    6.9720   -2.1230 c3        1 MOL     -0.109730
     74 C24        -0.7390    6.4450   -0.8770 c         1 MOL      0.683442
     75 O13        -0.3150    6.6860    0.2500 o         1 MOL     -0.557549
     76 H32         1.9250    7.8570   -1.7860 hn        1 MOL      0.308114
     77 H33        -0.3090    6.4370   -3.0010 h1        1 MOL      0.077556
     78 H34        -0.1730    8.0320   -2.2130 h1        1 MOL      0.077556
     79 N8         -1.8060    5.7570   -1.1450 n         1 MOL     -0.735463
     80 C25        -2.5660    5.0650   -0.0790 c3        1 MOL      0.170793
     81 C26        -1.8170    3.8120    0.4850 c         1 MOL      0.752971
     82 O14        -1.2820    3.0080   -0.2510 o         1 MOL     -0.742004
     83 C27        -3.8060    4.4730   -0.6770 c3        1 MOL      0.478065
     84 C28        -4.8090    5.6290   -0.8840 c3        1 MOL     -0.329397
     85 O15        -4.5210    3.6340    0.2460 oh        1 MOL     -0.722215
     86 H35        -2.0630    5.7290   -2.1200 hn        1 MOL      0.365987
     87 H36        -2.7710    5.6800    0.7960 h1        1 MOL      0.048705
     88 H37        -3.5760    3.9980   -1.6270 h1        1 MOL     -0.005075
     89 H38        -5.2660    3.2400   -0.1940 ho        1 MOL      0.405753
     90 H39        -4.4520    6.2590   -1.7040 hc        1 MOL      0.075769
     91 H40        -5.7600    5.1960   -1.1930 hc        1 MOL      0.075769
     92 H41        -4.8790    6.1750    0.0590 hc        1 MOL      0.075769
     93 N9         -1.8300    3.6650    1.8240 n         1 MOL     -0.582332
     94 C29        -1.2870    2.5570    2.7060 c3        1 MOL      0.085297
     95 C30        -1.7370    1.0910    2.3750 c         1 MOL      0.295282
     96 O16        -1.6330    0.6320    1.2810 o         1 MOL     -0.375895
     97 C31         0.2790    2.6680    2.8360 c3        1 MOL      0.503799
     98 C32         0.9410    4.0820    3.0500 c3        1 MOL     -0.079027
     99 C33         0.7510    1.7370    3.9130 c3        1 MOL     -0.393563
    100 C34         0.6100    4.9590    4.2770 c3        1 MOL     -0.189660
    101 H42        -2.4150    4.3930    2.2100 hn        1 MOL      0.269352
    102 H43        -1.5650    2.7940    3.7370 h1        1 MOL      0.015811
    103 H44         0.6780    2.3280    1.8750 hc        1 MOL     -0.179172
    104 H45         0.7040    4.6780    2.1750 hc        1 MOL      0.052699
    105 H46         2.0220    3.9990    3.0320 hc        1 MOL      0.052699
    106 H47         0.5390    0.7000    3.6410 hc        1 MOL      0.074448
    107 H48         1.8320    1.8320    4.0070 hc        1 MOL      0.074448
    108 H49         0.2700    1.9710    4.8670 hc        1 MOL      0.074448
    109 H50        -0.1540    5.6920    4.0030 hc        1 MOL      0.041466
    110 H51         0.2680    4.3610    5.1170 hc        1 MOL      0.041466
    111 H52         1.4720    5.5480    4.5830 hc        1 MOL      0.041466
    112 N10        -2.1630    0.3500    3.4380 n         1 MOL     -0.125191
    113 C35        -2.6390   -1.0200    3.2720 c3        1 MOL     -0.259411
    114 C36        -4.0100   -1.1720    2.6320 c         1 MOL      0.735655
    115 O17        -4.2740   -2.2670    2.1330 o         1 MOL     -0.571912
    116 C37        -2.3920   -1.8810    4.4360 c3        1 MOL      0.496902
    117 C38        -3.3960   -1.6180    5.5620 c3        1 MOL     -0.531181
    118 O18        -1.0610   -1.6940    4.8870 oh        1 MOL     -0.627529
    119 H53        -2.3430    0.9340    4.2520 hn        1 MOL      0.193986
    120 H54        -2.0050   -1.4720    2.5210 h1        1 MOL      0.105552
    121 H55        -2.5220   -2.9240    4.1400 h1        1 MOL     -0.004885
    122 H56        -0.5520   -2.3960    4.4640 ho        1 MOL      0.404478
    123 H57        -3.3220   -2.4440    6.2700 hc        1 MOL      0.134442
    124 H58        -3.0600   -0.6910    6.0460 hc        1 MOL      0.134442
    125 H59        -4.4380   -1.6570    5.2640 hc        1 MOL      0.134442
    126 N11        -4.8500   -0.1740    2.5830 n         1 MOL     -0.523121
    127 C39        -6.2460   -0.2880    2.0990 c3        1 MOL     -0.122492
    128 C40        -6.2690   -0.9630    0.6950 c         1 MOL      0.554111
    129 O19        -5.8230   -0.2710   -0.2290 o         1 MOL     -0.557591
    130 C41        -6.9220    1.0960    2.1450 c3        1 MOL      0.503168
    131 C42        -8.3480    0.9180    1.6520 c3        1 MOL     -0.355324
    132 O20        -6.9870    1.7370    3.3730 oh        1 MOL     -0.601758
    133 H60        -4.4830    0.7320    2.8400 hn        1 MOL      0.224096
    134 H61        -6.8910   -0.9080    2.7240 h1        1 MOL      0.073656
    135 H62        -6.5030    1.7800    1.4050 h1        1 MOL     -0.008188
    136 H63        -6.0960    1.9940    3.6290 ho        1 MOL      0.384103
    137 H64        -8.4240    0.5050    0.6470 hc        1 MOL      0.081885
    138 H65        -8.8640    0.3800    2.4460 hc        1 MOL      0.081885
    139 H66        -8.7610    1.9070    1.5250 hc        1 MOL      0.081885
    140 N12        -6.8750   -2.1720    0.6080 n         1 MOL     -0.459499
    141 C43        -7.1130   -2.8310   -0.6870 c3        1 MOL      0.084225
    142 C44        -5.8400   -2.7770   -1.5870 c         1 MOL      0.463967
    143 O21        -5.9180   -2.5710   -2.7940 o         1 MOL     -0.512999
    144 C45        -8.3460   -2.2250   -1.3600 c3        1 MOL     -0.094028
    145 C46        -9.6840   -2.3110   -0.4830 c3        1 MOL     -0.035509
    146 C47       -10.8400   -1.9240   -1.4840 c3        1 MOL     -0.017882
    147 C48       -12.1580   -1.6760   -0.7380 c3        1 MOL     -0.047103
    148 N13       -12.1010   -0.4820    0.2580 n4        1 MOL     -0.270505
    149 H67        -7.2970   -2.6120    1.4120 hn        1 MOL      0.290242
    150 H68        -7.4140   -3.8570   -0.5160 h1        1 MOL      0.067560
    151 H69        -8.3660   -2.7740   -2.2960 hc        1 MOL      0.062297
    152 H70        -8.1540   -1.2230   -1.7550 hc        1 MOL      0.062297
    153 H71        -9.6300   -1.5610    0.3120 hc        1 MOL      0.020093
    154 H72        -9.7680   -3.3540   -0.1830 hc        1 MOL      0.020093
    155 H73       -11.0220   -2.7510   -2.1700 hc        1 MOL      0.056154
    156 H74       -10.5980   -1.0370   -2.0790 hc        1 MOL      0.056154
    157 H75       -12.4370   -2.5870   -0.2130 hx        1 MOL      0.102136
    158 H76       -12.9720   -1.7060   -1.4670 hx        1 MOL      0.102136
    159 H77       -13.0540   -0.3090    0.5500 hn        1 MOL      0.211542
    160 H78       -11.4630   -0.6010    1.0230 hn        1 MOL      0.211542
    161 H79       -11.8260    0.3370   -0.2750 hn        1 MOL      0.211542
    162 N14        -4.6810   -3.1470   -1.0020 n         1 MOL     -0.473765
    163 C49        -3.3910   -3.2900   -1.7480 c3        1 MOL      0.665639
    164 C50        -2.1570   -2.7160   -0.9500 c         1 MOL      0.270365
    165 O22        -1.7400   -1.5980   -1.1620 o         1 MOL     -0.640714
    166 C51        -3.2540   -4.6450   -2.4210 c3        1 MOL     -0.138836
    167 C52        -3.7500   -4.7260   -3.8200 c3        1 MOL     -0.275800
    168 C53        -3.4450   -6.1580   -4.2470 c         1 MOL      0.710834
    169 O23        -3.9960   -7.1310   -3.6710 o         1 MOL     -0.617909
    170 O24        -2.6410   -6.3740   -5.1670 o         1 MOL     -0.617909
    171 H80        -4.7570   -3.4110   -0.0300 hn        1 MOL      0.255673
    172 H81        -3.3840   -2.5820   -2.5670 h1        1 MOL     -0.075880
    173 H82        -3.7330   -5.3960   -1.7880 hc        1 MOL      0.030525
    174 H83        -2.1880   -4.8680   -2.4810 hc        1 MOL      0.030525
    175 H84        -3.1970   -3.9850   -4.4020 hc        1 MOL      0.065826
    176 H85        -4.8280   -4.5500   -3.8170 hc        1 MOL      0.065826
    177 N15        -1.4740   -3.4740   -0.0790 n         1 MOL     -0.363614
    178 C54        -1.7720   -4.8470    0.3160 c3        1 MOL      0.015903
    179 H86        -1.2500   -5.0780    1.2450 h1        1 MOL      0.026432
    180 H87        -2.8460   -4.9570    0.4660 h1        1 MOL      0.026432
    181 H88        -1.4410   -5.5300   -0.4660 h1        1 MOL      0.026432
    182 H89        -0.5600   -3.1720    0.2240 hn        1 MOL      0.406018
    183 Ca1        -0.4680    0.6500   -1.0560 Ca        1 MOL      1.805325
    184 O25        -3.3220    0.9190   -1.1250 oh        1 MOL     -0.858422
    185 H90        -4.0060    1.4660   -0.7380 ho        1 MOL      0.419055
    186 H91        -3.6910    0.0350   -1.1110 ho        1 MOL      0.419055
    187 O26         1.8560   -0.1240   -2.2310 oh        1 MOL     -0.858422
    188 H92         2.2240    0.3390   -2.9830 ho        1 MOL      0.419055
    189 H93         2.6150   -0.4770   -1.7740 ho        1 MOL      0.419055
    190 O27        -1.3330   -0.1390   -3.5990 oh        1 MOL     -0.858422
    191 H94        -0.8150   -0.7300   -4.1290 ho        1 MOL      0.419055
    192 H95        -2.2460   -0.3830   -3.7850 ho        1 MOL      0.419055
@<TRIPOS>BOND
     1    1    2 1   
     2    1    4 1   
     3    1    5 1   
     4    1    6 1   
     5    2    3 2   
     6    2    7 1   
     7    7    8 1   
     8    7   15 1   
     9    8    9 1   
    10    8   11 1   
    11    8   16 1   
    12    9   10 2   
    13    9   19 1   
    14   11   12 1   
    15   11   17 1   
    16   11   18 1   
    17   12   13 1   
    18   12   14 1   
    19   19   20 1   
    20   19   28 1   
    21   20   21 1   
    22   20   23 1   
    23   20   29 1   
    24   21   22 2   
    25   21   41 1   
    26   23   24 1   
    27   23   30 1   
    28   23   31 1   
    29   24   25 1   
    30   24   32 1   
    31   24   33 1   
    32   25   26 1   
    33   25   34 1   
    34   25   35 1   
    35   26   27 1   
    36   26   36 1   
    37   26   37 1   
    38   27   38 1   
    39   27   39 1   
    40   27   40 1   
    41   41   42 1   
    42   41   49 1   
    43   42   43 1   
    44   42   45 1   
    45   42   50 1   
    46   43   44 2   
    47   43   53 1   
    48   45   46 1   
    49   45   51 1   
    50   45   52 1   
    51   46   47 1   
    52   46   48 1   
    53   53   54 1   
    54   53   57 1   
    55   54   55 1   
    56   54   58 1   
    57   54   59 1   
    58   55   56 2   
    59   55   60 1   
    60   60   61 1   
    61   60   68 1   
    62   61   62 1   
    63   61   64 1   
    64   61   69 1   
    65   62   63 2   
    66   62   72 1   
    67   64   65 1   
    68   64   70 1   
    69   64   71 1   
    70   65   66 1   
    71   65   67 1   
    72   72   73 1   
    73   72   76 1   
    74   73   74 1   
    75   73   77 1   
    76   73   78 1   
    77   74   75 2   
    78   74   79 1   
    79   79   80 1   
    80   79   86 1   
    81   80   81 1   
    82   80   83 1   
    83   80   87 1   
    84   81   82 2   
    85   81   93 1   
    86   83   84 1   
    87   83   85 1   
    88   83   88 1   
    89   84   90 1   
    90   84   91 1   
    91   84   92 1   
    92   85   89 1   
    93   93   94 1   
    94   93  101 1   
    95   94   95 1   
    96   94   97 1   
    97   94  102 1   
    98   95   96 2   
    99   95  112 1   
   100   97   98 1   
   101   97   99 1   
   102   97  103 1   
   103   98  100 1   
   104   98  104 1   
   105   98  105 1   
   106   99  106 1   
   107   99  107 1   
   108   99  108 1   
   109  100  109 1   
   110  100  110 1   
   111  100  111 1   
   112  112  113 1   
   113  112  119 1   
   114  113  114 1   
   115  113  116 1   
   116  113  120 1   
   117  114  115 2   
   118  114  126 1   
   119  116  117 1   
   120  116  118 1   
   121  116  121 1   
   122  117  123 1   
   123  117  124 1   
   124  117  125 1   
   125  118  122 1   
   126  126  127 1   
   127  126  133 1   
   128  127  128 1   
   129  127  130 1   
   130  127  134 1   
   131  128  129 2   
   132  128  140 1   
   133  130  131 1   
   134  130  132 1   
   135  130  135 1   
   136  131  137 1   
   137  131  138 1   
   138  131  139 1   
   139  132  136 1   
   140  140  141 1   
   141  140  149 1   
   142  141  142 1   
   143  141  144 1   
   144  141  150 1   
   145  142  143 2   
   146  142  162 1   
   147  144  145 1   
   148  144  151 1   
   149  144  152 1   
   150  145  146 1   
   151  145  153 1   
   152  145  154 1   
   153  146  147 1   
   154  146  155 1   
   155  146  156 1   
   156  147  148 1   
   157  147  157 1   
   158  147  158 1   
   159  148  159 1   
   160  148  160 1   
   161  148  161 1   
   162  162  163 1   
   163  162  171 1   
   164  163  164 1   
   165  163  166 1   
   166  163  172 1   
   167  164  165 2   
   168  164  177 1   
   169  166  167 1   
   170  166  173 1   
   171  166  174 1   
   172  167  168 1   
   173  167  175 1   
   174  167  176 1   
   175  168  169 1   
   176  168  170 1   
   177  177  178 1   
   178  177  182 1   
   179  178  179 1   
   180  178  180 1   
   181  178  181 1   
   182  184  185 1   
   183  184  186 1   
   184  187  188 1   
   185  187  189 1   
   186  190  191 1   
   187  190  192 1   
@<TRIPOS>SUBSTRUCTURE
     1 MOL         1 TEMP              0 ****  ****    0 ROOT
