@<TRIPOS>MOLECULE
MOL
  179   176     1     0     0
SMALL
resp


@<TRIPOS>ATOM
      1 C1          0.6280   -3.9090    6.1130 c3        1 MOL     -0.290479
      2 C2          0.7870   -3.8980    4.5990 c         1 MOL      0.751986
      3 O1         -0.2080   -4.0440    3.8950 o         1 MOL     -0.591968
      4 H1          1.5860   -3.6780    6.5810 hc        1 MOL      0.084088
      5 H2         -0.1090   -3.1620    6.4070 hc        1 MOL      0.084088
      6 H3          0.2950   -4.8960    6.4360 hc        1 MOL      0.084088
      7 N1          1.9810   -3.5250    4.1100 n         1 MOL     -0.596442
      8 C3          2.1720   -3.2000    2.6870 c3        1 MOL      0.054245
      9 C4          2.2090   -4.5140    1.8240 c         1 MOL      0.558172
     10 O2          2.5980   -5.6210    2.2620 o         1 MOL     -0.546856
     11 C5          3.4230   -2.3530    2.5350 c3        1 MOL     -0.331769
     12 C6          3.4700   -1.4700    1.2930 c         1 MOL      0.342526
     13 O3          3.9760   -0.3760    1.3400 o         1 MOL     -0.612683
     14 O4          3.0510   -1.8430    0.1740 o         1 MOL     -0.612683
     15 H4          2.6540   -3.2000    4.7930 hn        1 MOL      0.320237
     16 H5          1.3280   -2.6510    2.2870 h1        1 MOL     -0.042201
     17 H6          4.3060   -2.9930    2.5240 hc        1 MOL      0.172993
     18 H7          3.5300   -1.6530    3.3800 hc        1 MOL      0.172993
     19 N2          2.0400   -4.3320    0.5060 n         1 MOL     -0.318875
     20 C7          2.0120   -5.3330   -0.5710 c3        1 MOL     -0.001637
     21 C8          3.0100   -4.9730   -1.6420 c         1 MOL      0.481112
     22 O5          3.0040   -5.5070   -2.8000 o         1 MOL     -0.577231
     23 C9          0.5790   -5.4050   -1.1160 c3        1 MOL      0.018395
     24 C10         0.1380   -4.0840   -1.8920 c3        1 MOL     -0.063909
     25 C11        -1.3140   -4.3070   -2.2750 c3        1 MOL     -0.255995
     26 C12        -1.6650   -3.2560   -3.3160 c3        1 MOL      0.129491
     27 N3         -3.1060   -3.3780   -3.7880 n4        1 MOL     -0.291765
     28 H8          1.9240   -3.3700    0.2350 hn        1 MOL      0.298429
     29 H9          2.3400   -6.3300   -0.2710 h1        1 MOL      0.117125
     30 H10        -0.1020   -5.7420   -0.3470 hc        1 MOL      0.017202
     31 H11         0.6010   -6.2750   -1.7570 hc        1 MOL      0.017202
     32 H12         0.7180   -4.0000   -2.8170 hc        1 MOL      0.107779
     33 H13         0.1760   -3.2080   -1.2580 hc        1 MOL      0.107779
     34 H14        -1.9670   -4.2240   -1.3970 hc        1 MOL      0.092094
     35 H15        -1.2740   -5.2770   -2.7710 hc        1 MOL      0.092094
     36 H16        -0.9320   -3.2610   -4.1170 hx        1 MOL      0.012619
     37 H17        -1.6920   -2.3170   -2.7560 hx        1 MOL      0.012619
     38 H18        -3.3070   -2.6670   -4.4770 hn        1 MOL      0.269804
     39 H19        -3.2860   -4.2980   -4.1790 hn        1 MOL      0.269804
     40 H20        -3.6910   -3.2320   -2.9770 hn        1 MOL      0.269804
     41 N4          3.9590   -4.1450   -1.2950 n         1 MOL     -0.224042
     42 C13         5.1750   -3.9030   -2.1130 c3        1 MOL      0.013417
     43 C14         6.3560   -3.3220   -1.3220 c         1 MOL      0.321767
     44 O6          7.5530   -3.5100   -1.6030 o         1 MOL     -0.499945
     45 C15         4.8170   -2.9140   -3.3520 c3        1 MOL     -0.260080
     46 C16         4.0420   -1.6860   -2.8840 c         1 MOL      0.821220
     47 O7          2.7720   -1.6100   -3.0100 o         1 MOL     -0.847379
     48 O8          4.6460   -0.8020   -2.2130 o         1 MOL     -0.847379
     49 H21         3.7480   -3.7350   -0.4040 hn        1 MOL      0.051078
     50 H22         5.4860   -4.8530   -2.5400 h1        1 MOL      0.120484
     51 H23         4.1990   -3.4450   -4.0720 hc        1 MOL      0.104164
     52 H24         5.7660   -2.6440   -3.8110 hc        1 MOL      0.104164
     53 N5          6.0030   -2.6360   -0.2520 n         1 MOL     -0.027566
     54 C17         6.9080   -2.1580    0.8120 c3        1 MOL     -0.253856
     55 C18         7.3200   -0.7080    0.5340 c         1 MOL      0.585053
     56 O9          8.3470   -0.3710    1.2160 o         1 MOL     -0.536972
     57 H25         5.0220   -2.4010   -0.1950 hn        1 MOL      0.163767
     58 H26         7.7750   -2.7720    1.0240 h1        1 MOL      0.134305
     59 H27         6.3110   -2.1080    1.7250 h1        1 MOL      0.134305
     60 N6          6.7250    0.0890   -0.3860 n         1 MOL     -0.369253
     61 C19         7.1100    1.4820   -0.6140 c3        1 MOL      0.078352
     62 C20         5.9220    2.4260   -0.6920 c         1 MOL      0.661341
     63 O10         4.7580    2.0230   -0.8910 o         1 MOL     -0.660307
     64 C21         7.8840    1.5490   -1.9470 c3        1 MOL     -0.316622
     65 C22         9.1950    0.9440   -1.9900 c         1 MOL      0.696084
     66 N7          9.3670   -0.0200   -2.8770 n         1 MOL     -0.792351
     67 O11        10.0900    1.3630   -1.2700 o         1 MOL     -0.539065
     68 H28         6.1120   -0.4080   -1.0280 hn        1 MOL      0.336997
     69 H29         7.7560    1.8450    0.1920 h1        1 MOL      0.050223
     70 H30         8.1090    2.5750   -2.2540 hc        1 MOL      0.071422
     71 H31         7.1870    1.2040   -2.7000 hc        1 MOL      0.071422
     72 H32         8.5920   -0.2680   -3.4780 hn        1 MOL      0.371365
     73 H33        10.2920   -0.3870   -3.0610 hn        1 MOL      0.371365
     74 N8          6.1080    3.7500   -0.6280 n         1 MOL     -0.444581
     75 C23         5.0360    4.7130   -0.9770 c3        1 MOL     -0.099019
     76 C24         4.1310    4.7090    0.2770 c         1 MOL      0.601030
     77 O12         4.5530    4.8770    1.4280 o         1 MOL     -0.541393
     78 H34         7.0050    4.1750   -0.4400 hn        1 MOL      0.328013
     79 H35         4.5110    4.2860   -1.8310 h1        1 MOL      0.094071
     80 H36         5.4190    5.7120   -1.2070 h1        1 MOL      0.094071
     81 N9          2.8720    4.4920    0.0600 n         1 MOL     -0.577254
     82 C25         1.8000    4.3820    1.0180 c3        1 MOL      0.449025
     83 C26         1.6520    2.9200    1.4190 c         1 MOL      0.416879
     84 O13         2.2580    2.0040    0.8740 o         1 MOL     -0.429339
     85 C27         0.5130    4.9960    0.4500 c3        1 MOL     -0.148880
     86 C28         0.5510    6.4620    0.2060 ca        1 MOL     -0.001749
     87 C29        -0.0710    6.8700   -0.9810 ca        1 MOL     -0.118947
     88 C30         1.1890    7.3950    1.0830 ca        1 MOL     -0.118947
     89 C31        -0.0620    8.2200   -1.3030 ca        1 MOL     -0.265370
     90 C32         1.2730    8.7580    0.6720 ca        1 MOL     -0.265370
     91 C33         0.5160    9.1590   -0.4480 ca        1 MOL      0.334395
     92 O14         0.5370   10.4890   -0.7600 oh        1 MOL     -0.468122
     93 H37         2.5540    4.4800   -0.8930 hn        1 MOL      0.223058
     94 H38         1.9980    4.9290    1.9430 h1        1 MOL      0.040417
     95 H39        -0.2260    4.7650    1.2260 hc        1 MOL      0.013432
     96 H40         0.2270    4.4100   -0.4220 hc        1 MOL      0.013432
     97 H41        -0.6390    6.1870   -1.5920 ha        1 MOL      0.123648
     98 H42         1.6280    7.0430    2.0020 ha        1 MOL      0.123648
     99 H43        -0.5530    8.6500   -2.1540 ha        1 MOL      0.166069
    100 H44         1.8940    9.4380    1.2470 ha        1 MOL      0.166069
    101 H45         0.0800   10.8110   -1.5390 ho        1 MOL      0.361160
    102 N10         0.6200    2.6410    2.2100 n         1 MOL     -0.592373
    103 C34         0.2840    1.3410    2.6950 c3        1 MOL      0.035894
    104 C35        -0.0470    0.2620    1.5750 c         1 MOL      0.610640
    105 O15         0.8160   -0.1540    0.7960 o         1 MOL     -0.424246
    106 C36         1.3290    0.9450    3.7970 c3        1 MOL      0.194525
    107 C37         0.7340   -0.2860    4.4780 c3        1 MOL     -0.125181
    108 C38         1.7530    2.0970    4.7750 c3        1 MOL     -0.150237
    109 C39        -0.4910   -0.0850    5.3750 c3        1 MOL     -0.150970
    110 H46         0.1390    3.4730    2.5370 hn        1 MOL      0.299279
    111 H47        -0.6510    1.4950    3.2370 h1        1 MOL      0.079876
    112 H48         2.2880    0.6410    3.3780 hc        1 MOL      0.019848
    113 H49         1.5260   -0.6270    5.1510 hc        1 MOL      0.049650
    114 H50         0.6340   -1.0970    3.7600 hc        1 MOL      0.049650
    115 H51         2.4170    1.7400    5.5600 hc        1 MOL      0.044483
    116 H52         2.0820    2.9770    4.2220 hc        1 MOL      0.044483
    117 H53         0.8850    2.4120    5.3670 hc        1 MOL      0.044483
    118 H54        -1.3210    0.3000    4.7880 hc        1 MOL      0.041711
    119 H55        -0.7870   -1.0600    5.7790 hc        1 MOL      0.041711
    120 H56        -0.3330    0.6790    6.1350 hc        1 MOL      0.041711
    121 N11        -1.2400   -0.3150    1.4930 n         1 MOL     -0.716703
    122 C40        -1.7370   -1.3110    0.5760 c3        1 MOL      0.306535
    123 C41        -3.0680   -1.1390   -0.0360 c         1 MOL      0.397790
    124 O16        -3.2910   -1.7270   -1.0610 o         1 MOL     -0.458343
    125 C42        -1.6780   -2.6840    1.2300 c3        1 MOL      0.533834
    126 O17        -2.3640   -2.6700    2.4090 oh        1 MOL     -0.706714
    127 H57        -1.8590   -0.0130    2.2250 hn        1 MOL      0.296275
    128 H58        -1.0480   -1.4910   -0.2600 h1        1 MOL      0.128535
    129 H59        -0.6500   -3.0590    1.2300 h1        1 MOL     -0.115358
    130 H60        -2.1970   -3.3690    0.5600 h1        1 MOL     -0.115358
    131 H61        -2.0720   -3.2810    3.0850 ho        1 MOL      0.440926
    132 N12        -3.9470   -0.4430    0.6280 n         1 MOL     -0.492806
    133 C43        -5.2550   -0.1790    0.0740 c3        1 MOL      0.075403
    134 C44        -5.1490    0.5480   -1.3010 c         1 MOL      0.494558
    135 O18        -4.1320    1.1740   -1.6090 o         1 MOL     -0.523074
    136 C45        -5.9920    0.5630    1.1970 c3        1 MOL     -0.300230
    137 H62        -3.6430    0.0710    1.4410 hn        1 MOL      0.314658
    138 H63        -5.6580   -1.1750   -0.0710 h1        1 MOL      0.115656
    139 H64        -6.9140    1.0760    0.9440 hc        1 MOL      0.116318
    140 H65        -6.2370   -0.1000    2.0340 hc        1 MOL      0.116318
    141 H66        -5.3790    1.3370    1.6620 hc        1 MOL      0.116318
    142 N13        -6.1580    0.4440   -2.1770 n         1 MOL     -0.547601
    143 C46        -7.4440   -0.2650   -1.9220 c3        1 MOL      0.416253
    144 C47        -8.5470    0.4710   -2.6830 c         1 MOL      0.333243
    145 O19        -8.4370    0.9520   -3.8480 o         1 MOL     -0.520706
    146 C48        -7.3050   -1.7410   -2.3900 c3        1 MOL     -0.314011
    147 H67        -6.0500    1.0390   -2.9880 hn        1 MOL      0.306450
    148 H68        -7.6610   -0.2280   -0.8620 h1        1 MOL     -0.107704
    149 H69        -8.0900   -2.3950   -2.0320 hc        1 MOL      0.082248
    150 H70        -7.2130   -1.6390   -3.4710 hc        1 MOL      0.082248
    151 H71        -6.3560   -2.1430   -2.0180 hc        1 MOL      0.082248
    152 N14        -9.7880    0.6000   -2.1690 n         1 MOL     -0.372132
    153 C49       -10.1880    0.0060   -0.8620 c3        1 MOL     -0.020090
    154 C50        -9.7000    0.8670    0.2800 c         1 MOL      0.390652
    155 O20        -9.3140    0.3970    1.3340 o         1 MOL     -0.502786
    156 C51       -11.7020   -0.1080   -0.8040 c3        1 MOL     -0.037592
    157 C52       -12.0140   -0.8470    0.4850 c3        1 MOL     -0.225679
    158 C53       -13.5040   -1.2580    0.4780 c         1 MOL      0.691516
    159 O21       -13.9160   -2.4820    0.2080 o         1 MOL     -0.677416
    160 O22       -14.3070   -0.4630    0.9780 o         1 MOL     -0.677416
    161 H72       -10.4630    1.1030   -2.7270 hn        1 MOL      0.300549
    162 H73        -9.7720   -0.9930   -0.7600 h1        1 MOL      0.145058
    163 H74       -12.0720   -0.7070   -1.6350 hc        1 MOL      0.027711
    164 H75       -12.1020    0.9090   -0.7710 hc        1 MOL      0.027711
    165 H76       -11.7150   -0.3130    1.3920 hc        1 MOL      0.067663
    166 H77       -11.4180   -1.7670    0.5020 hc        1 MOL      0.067663
    167 N15        -9.6420    2.2030    0.0070 n         1 MOL     -0.180482
    168 C54        -9.0940    3.3080    0.7860 c3        1 MOL     -0.119388
    169 H78        -8.0680    3.4990    0.4730 h1        1 MOL      0.071284
    170 H79        -9.6960    4.2010    0.6230 h1        1 MOL      0.071284
    171 H80        -9.1070    3.0490    1.8450 h1        1 MOL      0.071284
    172 H81       -10.0090    2.5450   -0.8640 hn        1 MOL      0.224349
    173 Ca1         2.6170    0.3230   -1.0980 Ca        1 MOL      1.792869
    174 O23         0.4610   -0.7790   -2.1920 oh        1 MOL     -0.940150
    175 H82         1.1320   -1.1330   -2.7840 ho        1 MOL      0.447585
    176 H83        -0.2650   -0.5410   -2.7780 ho        1 MOL      0.447585
    177 O24         0.7100    2.3010   -1.7550 oh        1 MOL     -0.940150
    178 H84         1.0550    3.1810   -1.9110 ho        1 MOL      0.447585
    179 H85        -0.2220    2.3730   -1.9700 ho        1 MOL      0.447585
@<TRIPOS>BOND
     1    1    2 1   
     2    1    4 1   
     3    1    5 1   
     4    1    6 1   
     5    2    3 2   
     6    2    7 1   
     7    7    8 1   
     8    7   15 1   
     9    8    9 1   
    10    8   11 1   
    11    8   16 1   
    12    9   10 2   
    13    9   19 1   
    14   11   12 1   
    15   11   17 1   
    16   11   18 1   
    17   12   13 1   
    18   12   14 1   
    19   19   20 1   
    20   19   28 1   
    21   20   21 1   
    22   20   23 1   
    23   20   29 1   
    24   21   22 2   
    25   21   41 1   
    26   23   24 1   
    27   23   30 1   
    28   23   31 1   
    29   24   25 1   
    30   24   32 1   
    31   24   33 1   
    32   25   26 1   
    33   25   34 1   
    34   25   35 1   
    35   26   27 1   
    36   26   36 1   
    37   26   37 1   
    38   27   38 1   
    39   27   39 1   
    40   27   40 1   
    41   41   42 1   
    42   41   49 1   
    43   42   43 1   
    44   42   45 1   
    45   42   50 1   
    46   43   44 2   
    47   43   53 1   
    48   45   46 1   
    49   45   51 1   
    50   45   52 1   
    51   46   47 1   
    52   46   48 1   
    53   53   54 1   
    54   53   57 1   
    55   54   55 1   
    56   54   58 1   
    57   54   59 1   
    58   55   56 2   
    59   55   60 1   
    60   60   61 1   
    61   60   68 1   
    62   61   62 1   
    63   61   64 1   
    64   61   69 1   
    65   62   63 2   
    66   62   74 1   
    67   64   65 1   
    68   64   70 1   
    69   64   71 1   
    70   65   66 1   
    71   65   67 2   
    72   66   72 1   
    73   66   73 1   
    74   74   75 1   
    75   74   78 1   
    76   75   76 1   
    77   75   79 1   
    78   75   80 1   
    79   76   77 2   
    80   76   81 1   
    81   81   82 1   
    82   81   93 1   
    83   82   83 1   
    84   82   85 1   
    85   82   94 1   
    86   83   84 2   
    87   83  102 1   
    88   85   86 1   
    89   85   95 1   
    90   85   96 1   
    91   86   87 ar  
    92   86   88 ar  
    93   87   89 ar  
    94   87   97 1   
    95   88   90 ar  
    96   88   98 1   
    97   89   91 ar  
    98   89   99 1   
    99   90   91 ar  
   100   90  100 1   
   101   91   92 1   
   102   92  101 1   
   103  102  103 1   
   104  102  110 1   
   105  103  104 1   
   106  103  106 1   
   107  103  111 1   
   108  104  105 2   
   109  104  121 1   
   110  106  107 1   
   111  106  108 1   
   112  106  112 1   
   113  107  109 1   
   114  107  113 1   
   115  107  114 1   
   116  108  115 1   
   117  108  116 1   
   118  108  117 1   
   119  109  118 1   
   120  109  119 1   
   121  109  120 1   
   122  121  122 1   
   123  121  127 1   
   124  122  123 1   
   125  122  125 1   
   126  122  128 1   
   127  123  124 2   
   128  123  132 1   
   129  125  126 1   
   130  125  129 1   
   131  125  130 1   
   132  126  131 1   
   133  132  133 1   
   134  132  137 1   
   135  133  134 1   
   136  133  136 1   
   137  133  138 1   
   138  134  135 2   
   139  134  142 1   
   140  136  139 1   
   141  136  140 1   
   142  136  141 1   
   143  142  143 1   
   144  142  147 1   
   145  143  144 1   
   146  143  146 1   
   147  143  148 1   
   148  144  145 2   
   149  144  152 1   
   150  146  149 1   
   151  146  150 1   
   152  146  151 1   
   153  152  153 1   
   154  152  161 1   
   155  153  154 1   
   156  153  156 1   
   157  153  162 1   
   158  154  155 2   
   159  154  167 1   
   160  156  157 1   
   161  156  163 1   
   162  156  164 1   
   163  157  158 1   
   164  157  165 1   
   165  157  166 1   
   166  158  159 1   
   167  158  160 1   
   168  167  168 1   
   169  167  172 1   
   170  168  169 1   
   171  168  170 1   
   172  168  171 1   
   173  174  175 1   
   174  174  176 1   
   175  177  178 1   
   176  177  179 1   
@<TRIPOS>SUBSTRUCTURE
     1 MOL         1 TEMP              0 ****  ****    0 ROOT
