@<TRIPOS>MOLECULE
MOL
  192   187     1     0     0
SMALL
resp


@<TRIPOS>ATOM
      1 C1          3.7160   -5.5760    3.0050 c3        1 MOL     -0.294415
      2 C2          3.6860   -4.2080    2.3490 c         1 MOL      0.704625
      3 O1          3.1630   -3.2980    2.9560 o         1 MOL     -0.597037
      4 H1          4.5720   -5.6360    3.6780 hc        1 MOL      0.068805
      5 H2          2.7980   -5.7270    3.5730 hc        1 MOL      0.068805
      6 H3          3.8020   -6.3450    2.2390 hc        1 MOL      0.068805
      7 N1          4.0740   -4.1710    1.1220 n         1 MOL     -0.516742
      8 C3          4.0690   -2.8940    0.3730 c3        1 MOL     -0.060459
      9 C4          2.6760   -2.4930   -0.2460 c         1 MOL      0.498085
     10 O2          2.6690   -1.4350   -0.8580 o         1 MOL     -0.508734
     11 C5          5.1310   -2.9080   -0.7310 c3        1 MOL     -0.296162
     12 C6          5.0940   -4.1890   -1.6420 c         1 MOL      0.768572
     13 O3          5.2250   -5.3460   -1.1970 o         1 MOL     -0.734689
     14 O4          4.6830   -4.1540   -2.8240 o         1 MOL     -0.734689
     15 H4          4.3730   -5.0290    0.6830 hn        1 MOL      0.323536
     16 H5          4.3710   -2.0290    0.9740 h1        1 MOL      0.183004
     17 H6          6.0710   -2.8410   -0.1930 hc        1 MOL      0.066060
     18 H7          5.1930   -1.9970   -1.3440 hc        1 MOL      0.066060
     19 N2          1.5840   -3.2560   -0.0410 n         1 MOL     -0.285156
     20 C7          0.2240   -2.9940   -0.6570 c3        1 MOL      0.040820
     21 C8         -0.8370   -3.0020    0.4940 c         1 MOL      0.557043
     22 O5         -0.7010   -3.8100    1.4040 o         1 MOL     -0.548108
     23 C9         -0.0300   -4.1290   -1.6920 c3        1 MOL      0.089903
     24 C10         0.7190   -3.9880   -3.0330 c3        1 MOL      0.057431
     25 C11         0.6350   -5.1960   -3.9820 c3        1 MOL     -0.089646
     26 C12         1.4340   -6.3310   -3.3570 c3        1 MOL     -0.030599
     27 N3          2.9050   -6.0880   -3.3120 n4        1 MOL     -0.339725
     28 H8          1.6440   -4.0410    0.5870 hn        1 MOL      0.197943
     29 H9          0.2750   -2.0120   -1.1250 h1        1 MOL      0.047071
     30 H10        -1.0960   -4.1850   -1.9240 hc        1 MOL     -0.013521
     31 H11         0.2390   -5.1010   -1.2840 hc        1 MOL     -0.013521
     32 H12         1.7890   -3.7950   -2.9520 hc        1 MOL      0.000394
     33 H13         0.1230   -3.2720   -3.5980 hc        1 MOL      0.000394
     34 H14         0.9880   -4.9250   -4.9760 hc        1 MOL      0.062952
     35 H15        -0.3980   -5.5280   -4.0680 hc        1 MOL      0.062952
     36 H16         1.3150   -7.2400   -3.9340 hx        1 MOL      0.069581
     37 H17         0.9850   -6.5500   -2.3890 hx        1 MOL      0.069581
     38 H18         3.3230   -6.1210   -4.2320 hn        1 MOL      0.321253
     39 H19         3.1230   -5.1630   -2.9770 hn        1 MOL      0.321253
     40 H20         3.2770   -6.7620   -2.6440 hn        1 MOL      0.321253
     41 N4         -1.7770   -2.0720    0.5710 n         1 MOL     -0.671826
     42 C13        -2.1000   -0.8850   -0.2550 c3        1 MOL     -0.018217
     43 C14        -2.3260   -1.2600   -1.7630 c         1 MOL      0.508944
     44 O6         -1.4920   -0.9780   -2.6650 o         1 MOL     -0.554658
     45 C15        -1.0900    0.2770   -0.0400 c3        1 MOL      0.016799
     46 C16        -0.7270    0.4610    1.4810 c         1 MOL      0.811047
     47 O7         -1.5360    0.9800    2.2800 o         1 MOL     -0.831400
     48 O8          0.3420   -0.0300    1.9320 o         1 MOL     -0.831400
     49 H21        -2.4210   -2.1450    1.3470 hn        1 MOL      0.465731
     50 H22        -3.0390   -0.4510    0.0910 h1        1 MOL      0.019578
     51 H23        -1.4070    1.2930   -0.2960 hc        1 MOL      0.035140
     52 H24        -0.1440    0.2360   -0.5770 hc        1 MOL      0.035140
     53 N5         -3.2610   -2.1400   -2.1190 n         1 MOL     -0.228549
     54 C17        -4.5420   -2.3050   -1.5030 c3        1 MOL     -0.045305
     55 C18        -5.6630   -2.7580   -2.4530 c         1 MOL      0.702576
     56 O9         -5.3920   -2.8720   -3.6360 o         1 MOL     -0.591696
     57 H25        -3.1860   -2.4970   -3.0550 hn        1 MOL      0.235393
     58 H26        -4.9120   -1.3360   -1.1600 h1        1 MOL      0.024387
     59 H27        -4.4500   -3.0200   -0.6880 h1        1 MOL      0.024387
     60 N6         -6.8930   -3.0740   -2.1130 n         1 MOL     -0.631415
     61 C19        -7.5050   -3.0280   -0.7540 c3        1 MOL      0.244480
     62 C20        -8.2200   -1.7210   -0.4660 c         1 MOL      0.404377
     63 O10        -8.6590   -1.0390   -1.3760 o         1 MOL     -0.429548
     64 C21        -8.4700   -4.2210   -0.6130 c3        1 MOL     -0.131498
     65 C22        -9.1770   -4.4900   -1.9240 c         1 MOL      0.700352
     66 O11       -10.1600   -3.8570   -2.3450 o         1 MOL     -0.641711
     67 O12        -8.6340   -5.3500   -2.6030 o         1 MOL     -0.641711
     68 H28        -7.4580   -3.4140   -2.8750 hn        1 MOL      0.381143
     69 H29        -6.7170   -3.0930   -0.0010 h1        1 MOL     -0.043491
     70 H30        -9.1780   -4.0240    0.1920 hc        1 MOL     -0.003137
     71 H31        -7.8970   -5.1240   -0.3880 hc        1 MOL     -0.003137
     72 N7         -8.3900   -1.4320    0.8400 n         1 MOL     -0.312963
     73 C23        -9.0090   -0.1790    1.3330 c3        1 MOL     -0.146444
     74 C24        -8.0270    1.1070    1.2600 c         1 MOL      0.492318
     75 O13        -8.5120    2.2440    1.0820 o         1 MOL     -0.532563
     76 H32        -7.9930   -2.1050    1.4860 hn        1 MOL      0.229073
     77 H33        -9.4020   -0.1920    2.3450 h1        1 MOL      0.118573
     78 H34        -9.8910   -0.0830    0.7000 h1        1 MOL      0.118573
     79 N8         -6.7130    0.9070    1.3840 n         1 MOL     -0.380693
     80 C25        -5.7200    2.0050    1.4410 c3        1 MOL      0.007032
     81 C26        -5.0080    2.2350    0.0640 c         1 MOL      0.529705
     82 O14        -5.0660    1.3370   -0.7950 o         1 MOL     -0.496374
     83 C27        -4.7890    1.7360    2.5860 c3        1 MOL      0.480128
     84 C28        -5.4310    1.5960    3.9550 c3        1 MOL     -0.240147
     85 O15        -3.6960    2.6790    2.7010 oh        1 MOL     -0.616472
     86 H35        -6.5040   -0.0520    1.6180 hn        1 MOL      0.216193
     87 H36        -6.1930    2.9320    1.7710 h1        1 MOL      0.069583
     88 H37        -4.2370    0.8280    2.3360 h1        1 MOL     -0.029812
     89 H38        -2.9550    2.0770    2.7610 ho        1 MOL      0.320457
     90 H39        -5.8830    2.5340    4.2840 hc        1 MOL      0.036766
     91 H40        -6.1460    0.7780    3.7990 hc        1 MOL      0.036766
     92 H41        -4.6540    1.3650    4.6820 hc        1 MOL      0.036766
     93 N9         -4.2550    3.2820   -0.0770 n         1 MOL     -0.348723
     94 C29        -3.8890    3.7890   -1.4370 c3        1 MOL     -0.126410
     95 C30        -2.3840    4.1230   -1.6380 c         1 MOL      0.503571
     96 O16        -2.0590    4.6300   -2.7180 o         1 MOL     -0.550542
     97 C31        -4.7850    5.0670   -1.7860 c3        1 MOL     -0.002233
     98 C32        -4.4100    6.3410   -0.9710 c3        1 MOL      0.028614
     99 C33        -6.2570    4.7350   -1.7470 c3        1 MOL     -0.055019
    100 C34        -5.3190    7.4620   -1.3810 c3        1 MOL     -0.295056
    101 H42        -4.0710    3.9390    0.6710 hn        1 MOL      0.234962
    102 H43        -4.1540    3.0390   -2.1840 h1        1 MOL      0.147203
    103 H44        -4.7510    5.2710   -2.8490 hc        1 MOL      0.065402
    104 H45        -3.4110    6.7090   -1.1800 hc        1 MOL      0.042777
    105 H46        -4.4510    6.2550    0.1130 hc        1 MOL      0.042777
    106 H47        -6.8340    5.3380   -2.4510 hc        1 MOL      0.035106
    107 H48        -6.4640    3.7230   -2.0930 hc        1 MOL      0.035106
    108 H49        -6.7000    4.8400   -0.7560 hc        1 MOL      0.035106
    109 H50        -5.5440    7.5620   -2.4470 hc        1 MOL      0.070946
    110 H51        -6.2130    7.4660   -0.7620 hc        1 MOL      0.070946
    111 H52        -4.7810    8.4040   -1.2510 hc        1 MOL      0.070946
    112 N10        -1.5440    4.0710   -0.5850 n         1 MOL     -0.244905
    113 C35        -0.2050    4.5620   -0.6640 c3        1 MOL     -0.051732
    114 C36         0.8550    3.6110   -1.2040 c         1 MOL      0.659562
    115 O17         0.6530    2.3980   -1.4000 o         1 MOL     -0.506174
    116 C37         0.2180    5.0830    0.7160 c3        1 MOL      0.305604
    117 C38        -0.1690    4.1530    1.8970 c3        1 MOL     -0.398518
    118 O18        -0.3720    6.2820    1.1040 oh        1 MOL     -0.651852
    119 H53        -1.8680    3.6780    0.2880 hn        1 MOL      0.216947
    120 H54        -0.2290    5.4740   -1.2630 h1        1 MOL      0.116321
    121 H55         1.3080    5.1720    0.6690 h1        1 MOL      0.002937
    122 H56         0.1470    6.4800    1.8890 ho        1 MOL      0.417959
    123 H57         0.4440    4.2330    2.8010 hc        1 MOL      0.108740
    124 H58        -1.2470    4.2390    2.0360 hc        1 MOL      0.108740
    125 H59        -0.1390    3.1420    1.4860 hc        1 MOL      0.108740
    126 N11         2.0650    4.1260   -1.5900 n         1 MOL     -0.620050
    127 C39         3.1150    3.4130   -2.2730 c3        1 MOL      0.033002
    128 C40         4.4150    3.5900   -1.4290 c         1 MOL      0.622245
    129 O19         4.6940    4.6460   -0.9310 o         1 MOL     -0.544566
    130 C41         3.3740    4.0630   -3.6160 c3        1 MOL      0.384184
    131 C42         2.1940    4.0240   -4.5020 c3        1 MOL     -0.384350
    132 O20         4.4600    3.5170   -4.2940 oh        1 MOL     -0.599831
    133 H60         2.0590    5.1360   -1.6330 hn        1 MOL      0.275343
    134 H61         2.8730    2.3520   -2.2880 h1        1 MOL      0.067508
    135 H62         3.7870    5.0490   -3.3940 h1        1 MOL      0.043002
    136 H63         4.2910    2.5720   -4.3390 ho        1 MOL      0.323311
    137 H64         2.5300    4.1110   -5.5360 hc        1 MOL      0.109945
    138 H65         1.8010    3.0090   -4.4700 hc        1 MOL      0.109945
    139 H66         1.4410    4.7630   -4.2240 hc        1 MOL      0.109945
    140 N12         5.2760    2.5470   -1.3570 n         1 MOL     -0.461727
    141 C43         6.6680    2.6520   -0.9410 c3        1 MOL     -0.071078
    142 C44         6.9390    2.0790    0.4910 c         1 MOL      0.410147
    143 O21         8.0970    2.0970    0.9810 o         1 MOL     -0.529716
    144 C45         7.5800    2.1320   -2.0910 c3        1 MOL     -0.170292
    145 C46         7.3960    0.6050   -2.3660 c3        1 MOL     -0.065843
    146 C47         8.3480    0.0910   -3.4310 c3        1 MOL     -0.090948
    147 C48         7.7990    0.4770   -4.8150 c3        1 MOL      0.040366
    148 N13         8.8780    0.3860   -5.8290 n4        1 MOL     -0.226378
    149 H67         4.8560    1.7080   -1.7490 hn        1 MOL      0.279835
    150 H68         6.9010    3.7200   -0.8750 h1        1 MOL      0.160335
    151 H69         8.5760    2.2230   -1.6500 hc        1 MOL      0.083166
    152 H70         7.4710    2.7530   -2.9740 hc        1 MOL      0.083166
    153 H71         6.3700    0.3280   -2.6200 hc        1 MOL      0.082627
    154 H72         7.7150    0.0810   -1.4690 hc        1 MOL      0.082627
    155 H73         8.5550   -0.9780   -3.3450 hc        1 MOL      0.067509
    156 H74         9.3360    0.5380   -3.3080 hc        1 MOL      0.067509
    157 H75         7.4020    1.4890   -4.8210 hx        1 MOL      0.074488
    158 H76         7.0490   -0.2530   -5.1160 hx        1 MOL      0.074488
    159 H77         9.1920   -0.5710   -5.8440 hn        1 MOL      0.239273
    160 H78         8.4310    0.5240   -6.7250 hn        1 MOL      0.239273
    161 H79         9.6660    1.0140   -5.7130 hn        1 MOL      0.239273
    162 N14         5.9400    1.5250    1.1350 n         1 MOL     -0.068099
    163 C49         5.9010    0.9650    2.4870 c3        1 MOL     -0.438675
    164 C50         6.8600   -0.2430    2.6060 c         1 MOL      0.442783
    165 O22         6.5950   -1.3220    2.1270 o         1 MOL     -0.416357
    166 C51         4.5040    0.7120    2.8990 c3        1 MOL      0.220468
    167 C52         4.2130    0.5440    4.3470 c3        1 MOL     -0.080246
    168 C53         2.7170    0.3610    4.7630 c         1 MOL      0.821191
    169 O23         2.0270    1.3850    5.0280 o         1 MOL     -0.821104
    170 O24         2.1840   -0.7570    4.9470 o         1 MOL     -0.821104
    171 H80         5.0750    1.4800    0.6090 hn        1 MOL      0.160177
    172 H81         6.4030    1.7700    3.0310 h1        1 MOL      0.153683
    173 H82         4.1380   -0.1810    2.3810 hc        1 MOL      0.015734
    174 H83         3.8670    1.5580    2.6150 hc        1 MOL      0.015734
    175 H84         4.5670    1.4120    4.9050 hc        1 MOL      0.010706
    176 H85         4.7850   -0.3210    4.6800 hc        1 MOL      0.010706
    177 N15         8.0120   -0.0990    3.3050 n         1 MOL     -0.236936
    178 C54         9.0650   -1.0610    3.4500 c3        1 MOL     -0.014953
    179 H86         9.2130   -1.2810    4.5070 h1        1 MOL      0.048762
    180 H87         8.7980   -1.9770    2.9230 h1        1 MOL      0.048762
    181 H88         9.9870   -0.6570    3.0320 h1        1 MOL      0.048762
    182 H89         8.0990    0.7940    3.7680 hn        1 MOL      0.226299
    183 Ca1        -0.2310   -0.1050    4.4810 Ca        1 MOL      1.704667
    184 O25         0.2690   -2.8790    3.7770 oh        1 MOL     -0.874718
    185 H90         0.0640   -3.3450    2.9720 ho        1 MOL      0.439566
    186 H91         1.2130   -2.7010    3.7220 ho        1 MOL      0.439566
    187 O26         0.0660   -1.1690    6.9810 oh        1 MOL     -0.874718
    188 H92         0.1870   -0.8630    7.8800 ho        1 MOL      0.439566
    189 H93         0.8620   -1.6680    6.7940 ho        1 MOL      0.439566
    190 O27        -2.8410   -1.3500    4.2270 oh        1 MOL     -0.874718
    191 H94        -3.1960   -2.0380    4.7850 ho        1 MOL      0.439566
    192 H95        -3.0020   -0.5350    4.7010 ho        1 MOL      0.439566
@<TRIPOS>BOND
     1    1    2 1   
     2    1    4 1   
     3    1    5 1   
     4    1    6 1   
     5    2    3 2   
     6    2    7 1   
     7    7    8 1   
     8    7   15 1   
     9    8    9 1   
    10    8   11 1   
    11    8   16 1   
    12    9   10 2   
    13    9   19 1   
    14   11   12 1   
    15   11   17 1   
    16   11   18 1   
    17   12   13 1   
    18   12   14 1   
    19   19   20 1   
    20   19   28 1   
    21   20   21 1   
    22   20   23 1   
    23   20   29 1   
    24   21   22 2   
    25   21   41 1   
    26   23   24 1   
    27   23   30 1   
    28   23   31 1   
    29   24   25 1   
    30   24   32 1   
    31   24   33 1   
    32   25   26 1   
    33   25   34 1   
    34   25   35 1   
    35   26   27 1   
    36   26   36 1   
    37   26   37 1   
    38   27   38 1   
    39   27   39 1   
    40   27   40 1   
    41   41   42 1   
    42   41   49 1   
    43   42   43 1   
    44   42   45 1   
    45   42   50 1   
    46   43   44 2   
    47   43   53 1   
    48   45   46 1   
    49   45   51 1   
    50   45   52 1   
    51   46   47 1   
    52   46   48 1   
    53   53   54 1   
    54   53   57 1   
    55   54   55 1   
    56   54   58 1   
    57   54   59 1   
    58   55   56 2   
    59   55   60 1   
    60   60   61 1   
    61   60   68 1   
    62   61   62 1   
    63   61   64 1   
    64   61   69 1   
    65   62   63 2   
    66   62   72 1   
    67   64   65 1   
    68   64   70 1   
    69   64   71 1   
    70   65   66 1   
    71   65   67 1   
    72   72   73 1   
    73   72   76 1   
    74   73   74 1   
    75   73   77 1   
    76   73   78 1   
    77   74   75 2   
    78   74   79 1   
    79   79   80 1   
    80   79   86 1   
    81   80   81 1   
    82   80   83 1   
    83   80   87 1   
    84   81   82 2   
    85   81   93 1   
    86   83   84 1   
    87   83   85 1   
    88   83   88 1   
    89   84   90 1   
    90   84   91 1   
    91   84   92 1   
    92   85   89 1   
    93   93   94 1   
    94   93  101 1   
    95   94   95 1   
    96   94   97 1   
    97   94  102 1   
    98   95   96 2   
    99   95  112 1   
   100   97   98 1   
   101   97   99 1   
   102   97  103 1   
   103   98  100 1   
   104   98  104 1   
   105   98  105 1   
   106   99  106 1   
   107   99  107 1   
   108   99  108 1   
   109  100  109 1   
   110  100  110 1   
   111  100  111 1   
   112  112  113 1   
   113  112  119 1   
   114  113  114 1   
   115  113  116 1   
   116  113  120 1   
   117  114  115 2   
   118  114  126 1   
   119  116  117 1   
   120  116  118 1   
   121  116  121 1   
   122  117  123 1   
   123  117  124 1   
   124  117  125 1   
   125  118  122 1   
   126  126  127 1   
   127  126  133 1   
   128  127  128 1   
   129  127  130 1   
   130  127  134 1   
   131  128  129 2   
   132  128  140 1   
   133  130  131 1   
   134  130  132 1   
   135  130  135 1   
   136  131  137 1   
   137  131  138 1   
   138  131  139 1   
   139  132  136 1   
   140  140  141 1   
   141  140  149 1   
   142  141  142 1   
   143  141  144 1   
   144  141  150 1   
   145  142  143 2   
   146  142  162 1   
   147  144  145 1   
   148  144  151 1   
   149  144  152 1   
   150  145  146 1   
   151  145  153 1   
   152  145  154 1   
   153  146  147 1   
   154  146  155 1   
   155  146  156 1   
   156  147  148 1   
   157  147  157 1   
   158  147  158 1   
   159  148  159 1   
   160  148  160 1   
   161  148  161 1   
   162  162  163 1   
   163  162  171 1   
   164  163  164 1   
   165  163  166 1   
   166  163  172 1   
   167  164  165 2   
   168  164  177 1   
   169  166  167 1   
   170  166  173 1   
   171  166  174 1   
   172  167  168 1   
   173  167  175 1   
   174  167  176 1   
   175  168  169 1   
   176  168  170 1   
   177  177  178 1   
   178  177  182 1   
   179  178  179 1   
   180  178  180 1   
   181  178  181 1   
   182  184  185 1   
   183  184  186 1   
   184  187  188 1   
   185  187  189 1   
   186  190  191 1   
   187  190  192 1   
@<TRIPOS>SUBSTRUCTURE
     1 MOL         1 TEMP              0 ****  ****    0 ROOT
