@<TRIPOS>MOLECULE
MOL
  189   185     1     0     0
SMALL
resp


@<TRIPOS>ATOM
      1 C1          5.1610    3.8710   -3.5400 c3        1 MOL     -0.424992
      2 C2          5.7730    3.0180   -2.4140 c         1 MOL      0.808590
      3 O1          5.0800    2.7860   -1.4370 o         1 MOL     -0.616388
      4 H1          4.6060    3.2270   -4.2220 hc        1 MOL      0.107458
      5 H2          4.4870    4.6120   -3.1110 hc        1 MOL      0.107458
      6 H3          5.9570    4.3780   -4.0870 hc        1 MOL      0.107458
      7 N1          6.9080    2.3360   -2.6240 n         1 MOL     -0.815774
      8 C3          7.4360    1.2240   -1.8230 c3        1 MOL      0.418612
      9 C4          6.3810    0.0880   -1.4870 c         1 MOL      0.090321
     10 O2          5.7870    0.0150   -0.3550 o         1 MOL     -0.443444
     11 C5          8.3710    1.7530   -0.6550 c3        1 MOL     -0.167469
     12 C6          7.8610    2.8830    0.2350 c         1 MOL      0.728542
     13 O3          6.7960    2.6420    0.8690 o         1 MOL     -0.722379
     14 O4          8.5070    4.0020    0.3050 o         1 MOL     -0.722379
     15 H4          7.5290    2.6210   -3.3690 hn        1 MOL      0.357316
     16 H5          8.1500    0.7590   -2.4950 h1        1 MOL      0.005004
     17 H6          9.3440    1.9990   -1.0840 hc        1 MOL      0.020742
     18 H7          8.5810    0.8880   -0.0320 hc        1 MOL      0.020742
     19 N2          6.0630   -0.6770   -2.5320 n         1 MOL     -0.236900
     20 C7          5.1310   -1.8290   -2.6050 c3        1 MOL      0.022076
     21 C8          5.5010   -2.9500   -1.6930 c         1 MOL      0.331870
     22 O5          5.7300   -4.0660   -2.0950 o         1 MOL     -0.551041
     23 C9          3.6310   -1.4430   -2.6520 c3        1 MOL      0.268244
     24 C10         2.6310   -2.5120   -3.1750 c3        1 MOL     -0.033391
     25 C11         3.2920   -0.0900   -3.4020 c3        1 MOL     -0.327364
     26 C12         2.6960   -2.6600   -4.7110 c3        1 MOL     -0.158937
     27 H8          6.6940   -0.4960   -3.3090 hn        1 MOL      0.240427
     28 H9          5.2210   -2.2490   -3.6110 h1        1 MOL      0.034319
     29 H10         3.3220   -1.2330   -1.6310 hc        1 MOL     -0.184029
     30 H11         1.6210   -2.1340   -2.9750 hc        1 MOL      0.068026
     31 H12         2.6870   -3.4380   -2.6060 hc        1 MOL      0.068026
     32 H13         3.7770    0.6810   -2.8020 hc        1 MOL      0.079033
     33 H14         3.6810   -0.1260   -4.4220 hc        1 MOL      0.079033
     34 H15         2.2250    0.1130   -3.3510 hc        1 MOL      0.079033
     35 H16         2.6460   -1.6850   -5.2050 hc        1 MOL      0.017648
     36 H17         3.6350   -3.1180   -5.0280 hc        1 MOL      0.017648
     37 H18         1.9230   -3.3480   -5.0410 hc        1 MOL      0.017648
     38 N3          5.6410   -2.6940   -0.3870 n         1 MOL      0.004384
     39 C13         6.1790   -3.7700    0.4870 c3        1 MOL     -0.222115
     40 C14         5.2830   -5.0780    0.7450 c         1 MOL      0.645843
     41 O6          5.8110   -6.1710    0.9600 o         1 MOL     -0.577732
     42 C15         6.7400   -3.1760    1.8180 c3        1 MOL     -0.017287
     43 C16         7.8920   -2.2740    1.7320 c         1 MOL      0.686303
     44 O7          8.2600   -1.6180    2.7640 o         1 MOL     -0.725856
     45 O8          8.4560   -2.2170    0.6320 o         1 MOL     -0.725856
     46 H19         5.4550   -1.7810    0.0090 hn        1 MOL      0.369306
     47 H20         7.0570   -4.1480   -0.0480 h1        1 MOL      0.098848
     48 H21         6.9750   -3.9410    2.5640 hc        1 MOL      0.005674
     49 H22         5.9320   -2.5960    2.2640 hc        1 MOL      0.005674
     50 N4          3.9160   -4.9620    0.8480 n         1 MOL     -0.685565
     51 C17         3.1540   -3.7460    1.0880 c3        1 MOL      0.326981
     52 C18         1.8920   -4.1150    1.9050 c         1 MOL      0.489490
     53 O9          1.3570   -5.2170    1.7100 o         1 MOL     -0.573554
     54 H23         3.4850   -5.7340    1.3370 hn        1 MOL      0.308187
     55 H24         2.9970   -3.1480    0.1970 h1        1 MOL      0.000950
     56 H25         3.8170   -3.2260    1.7800 h1        1 MOL      0.000950
     57 N5          1.2910   -3.2190    2.6870 n         1 MOL     -0.530952
     58 C19         1.8830   -1.9610    3.0510 c3        1 MOL      0.142048
     59 C20         2.1910   -1.0280    1.7940 c         1 MOL      0.457608
     60 O10         3.2970   -0.5670    1.5730 o         1 MOL     -0.742588
     61 C21         2.9820   -2.1610    4.1510 c3        1 MOL     -0.086863
     62 C22         3.6250   -0.8520    4.5840 c         1 MOL      0.662231
     63 O11         2.8420    0.1060    4.7750 o         1 MOL     -0.676259
     64 O12         4.8870   -0.7910    4.7210 o         1 MOL     -0.676259
     65 H26         0.4050   -3.4690    3.1050 hn        1 MOL      0.310211
     66 H27         1.1520   -1.3810    3.6070 h1        1 MOL      0.039467
     67 H28         3.7320   -2.8970    3.8560 hc        1 MOL      0.022650
     68 H29         2.4540   -2.6070    4.9930 hc        1 MOL      0.022650
     69 N6          1.2020   -0.7610    0.9560 n         1 MOL     -0.042713
     70 C23        -0.1930   -1.1300    0.9900 c3        1 MOL     -0.218126
     71 C24        -0.6690   -2.2930    0.2150 c         1 MOL      0.466227
     72 O13        -0.0360   -2.6380   -0.8050 o         1 MOL     -0.532744
     73 H30         1.4760   -0.0120    0.3310 hn        1 MOL      0.228824
     74 H31        -0.8010   -0.2990    0.6400 h1        1 MOL      0.065568
     75 H32        -0.5030   -1.2890    2.0230 h1        1 MOL      0.065568
     76 N7         -1.7190   -2.9280    0.6620 n         1 MOL     -0.308207
     77 C25        -2.1440   -4.1970    0.0230 c3        1 MOL     -0.125405
     78 C26        -2.6450   -4.0050   -1.4780 c         1 MOL      0.495084
     79 O14        -2.7170   -4.9200   -2.2280 o         1 MOL     -0.522196
     80 C27        -3.3380   -4.8530    0.8740 c3        1 MOL     -0.019456
     81 C28        -4.6370   -4.0140    1.0770 c3        1 MOL     -0.087944
     82 C29        -5.6680   -4.8180    1.8920 c         1 MOL      0.604116
     83 N8         -6.9420   -4.9010    1.4810 n         1 MOL     -0.686004
     84 O15        -5.3930   -5.3270    2.9790 o         1 MOL     -0.554116
     85 H33        -2.1680   -2.5490    1.4880 hn        1 MOL      0.274144
     86 H34        -1.3070   -4.8750   -0.0870 h1        1 MOL      0.166997
     87 H35        -2.9820   -5.1100    1.8710 hc        1 MOL      0.035281
     88 H36        -3.7100   -5.7650    0.4270 hc        1 MOL      0.035281
     89 H37        -5.0030   -3.9840    0.0510 hc        1 MOL      0.021526
     90 H38        -4.4800   -3.0070    1.4590 hc        1 MOL      0.021526
     91 H39        -7.2470   -4.4200    0.6480 hn        1 MOL      0.330835
     92 H40        -7.5980   -5.5430    1.9000 hn        1 MOL      0.330835
     93 N9         -2.9960   -2.7720   -1.8470 n         1 MOL     -0.150594
     94 C30        -3.5490   -2.3610   -3.2320 c3        1 MOL     -0.204238
     95 C31        -4.9210   -1.6840   -3.2030 c         1 MOL      0.525079
     96 O16        -5.4080   -1.4060   -4.3210 o         1 MOL     -0.553424
     97 C32        -2.4840   -1.4750   -4.0550 c3        1 MOL      0.127325
     98 C33        -1.3510   -2.4280   -4.5770 c3        1 MOL     -0.230037
     99 C34        -1.9430   -0.3330   -3.2090 c3        1 MOL     -0.230037
    100 H41        -2.7180   -1.9940   -1.2770 hn        1 MOL      0.163774
    101 H42        -3.6740   -3.2820   -3.8130 h1        1 MOL      0.140120
    102 H43        -2.9120   -0.9910   -4.9380 hc        1 MOL      0.025558
    103 H44        -0.5520   -1.8650   -5.0740 hc        1 MOL      0.070082
    104 H45        -0.9660   -3.0900   -3.8050 hc        1 MOL      0.070082
    105 H46        -1.7520   -3.1760   -5.2600 hc        1 MOL      0.070082
    106 H47        -2.6860   -0.0030   -2.4810 hc        1 MOL      0.070082
    107 H48        -1.0530   -0.6860   -2.6700 hc        1 MOL      0.070082
    108 H49        -1.5530    0.4400   -3.8650 hc        1 MOL      0.070082
    109 N10        -5.5310   -1.2930   -2.0610 n         1 MOL     -0.322383
    110 C35        -6.7390   -0.4520   -2.1040 c3        1 MOL     -0.005086
    111 C36        -6.6710    0.8460   -1.3640 c         1 MOL      0.624692
    112 O17        -7.5760    1.6840   -1.4660 o         1 MOL     -0.576238
    113 C37        -7.9130   -1.2260   -1.4810 c3        1 MOL     -0.131340
    114 C38        -8.0820   -2.6350   -2.0190 c         1 MOL      0.609314
    115 N11        -8.3030   -2.7670   -3.2890 n         1 MOL     -0.757664
    116 O18        -8.1180   -3.6250   -1.2810 o         1 MOL     -0.584751
    117 H50        -5.0890   -1.4670   -1.1770 hn        1 MOL      0.127064
    118 H51        -7.1790   -0.1780   -3.0690 h1        1 MOL      0.070463
    119 H52        -8.8400   -0.6740   -1.6000 hc        1 MOL      0.071613
    120 H53        -7.7770   -1.4280   -0.4220 hc        1 MOL      0.071613
    121 H54        -8.2720   -1.9450   -3.8740 hn        1 MOL      0.372470
    122 H55        -8.2840   -3.7120   -3.6250 hn        1 MOL      0.372470
    123 N12        -5.6220    1.0160   -0.5880 n         1 MOL     -0.528911
    124 C39        -5.5210    2.1170    0.4060 c3        1 MOL      0.072771
    125 C40        -4.1960    2.9070    0.3570 c         1 MOL      0.470606
    126 O19        -3.2220    2.2790   -0.0890 o         1 MOL     -0.478442
    127 C41        -5.6650    1.5410    1.7820 c3        1 MOL     -0.078049
    128 C42        -6.9060    0.7590    2.0350 ca        1 MOL      0.025450
    129 C43        -8.1230    1.4420    2.0080 ca        1 MOL     -0.138718
    130 C44        -6.9480   -0.6470    2.1760 ca        1 MOL     -0.138718
    131 C45        -9.3480    0.7940    2.1450 ca        1 MOL     -0.239232
    132 C46        -8.1350   -1.3010    2.4160 ca        1 MOL     -0.239232
    133 C47        -9.3230   -0.5660    2.4880 ca        1 MOL      0.309165
    134 O20       -10.4920   -1.2360    2.6450 oh        1 MOL     -0.505927
    135 H56        -4.9400    0.2690   -0.5070 hn        1 MOL      0.351060
    136 H57        -6.3640    2.7850    0.2730 h1        1 MOL      0.058137
    137 H58        -5.7980    2.3930    2.4430 hc        1 MOL      0.061936
    138 H59        -4.8180    0.9110    2.0870 hc        1 MOL      0.061936
    139 H60        -8.1700    2.5120    1.9450 ha        1 MOL      0.130115
    140 H61        -6.0190   -1.2080    2.1020 ha        1 MOL      0.130115
    141 H62       -10.3360    1.2190    2.1360 ha        1 MOL      0.127250
    142 H63        -8.1330   -2.3680    2.5380 ha        1 MOL      0.127250
    143 H64       -11.2420   -0.6550    2.7930 ho        1 MOL      0.370730
    144 N13        -4.2430    4.1350    0.7940 n         1 MOL     -0.386840
    145 C48        -3.2500    5.2110    0.9050 c3        1 MOL     -0.045145
    146 C49        -1.9980    5.3610   -0.0700 c         1 MOL      0.216725
    147 O21        -1.4940    6.4660   -0.1950 o         1 MOL     -0.456173
    148 C50        -2.6420    5.1940    2.3230 c3        1 MOL      0.167762
    149 C51        -3.5440    5.7560    3.5070 c3        1 MOL     -0.261483
    150 C52        -2.9980    5.4050    4.9190 c         1 MOL      0.708341
    151 O22        -3.1550    6.2570    5.8130 o         1 MOL     -0.718496
    152 O23        -2.3740    4.3290    5.0570 o         1 MOL     -0.718496
    153 H65        -5.1590    4.4980    1.0120 hn        1 MOL      0.293963
    154 H66        -3.6860    6.1900    0.7030 h1        1 MOL      0.083346
    155 H67        -1.6920    5.7350    2.3560 hc        1 MOL      0.029055
    156 H68        -2.3950    4.1700    2.6030 hc        1 MOL      0.029055
    157 H69        -4.5090    5.3020    3.3030 hc        1 MOL      0.003874
    158 H70        -3.6660    6.8310    3.3970 hc        1 MOL      0.003874
    159 N14        -1.5900    4.3340   -0.8950 n         1 MOL     -0.159542
    160 C53        -0.3650    4.4770   -1.8390 c3        1 MOL     -0.072079
    161 C54        -0.6400    5.4980   -2.9300 c         1 MOL      0.453413
    162 O24         0.2520    6.1380   -3.4570 o         1 MOL     -0.552018
    163 C55         0.1120    3.1840   -2.5330 c3        1 MOL     -0.099126
    164 C56         0.3110    1.9370   -1.6400 c3        1 MOL      0.287641
    165 C57         1.3690    2.1400   -0.4920 c         1 MOL      0.422969
    166 O25         1.1700    2.9890    0.4170 o         1 MOL     -0.561436
    167 O26         2.3430    1.3840   -0.3690 o         1 MOL     -0.561436
    168 H71        -2.1180    3.4760   -0.9080 hn        1 MOL      0.180225
    169 H72         0.4640    4.7920   -1.1980 h1        1 MOL      0.143326
    170 H73         1.0780    3.4310   -2.9810 hc        1 MOL      0.018636
    171 H74        -0.5790    2.9360   -3.3490 hc        1 MOL      0.018636
    172 H75         0.6040    1.0890   -2.2530 hc        1 MOL     -0.093094
    173 H76        -0.6960    1.7430   -1.2700 hc        1 MOL     -0.093094
    174 N15        -1.8950    5.6900   -3.2260 n         1 MOL     -0.132439
    175 C58        -2.3990    6.7130   -4.1580 c3        1 MOL     -0.269633
    176 H77        -3.0550    6.2440   -4.8910 h1        1 MOL      0.099818
    177 H78        -2.9560    7.4690   -3.6040 h1        1 MOL      0.099818
    178 H79        -1.5600    7.1840   -4.6710 h1        1 MOL      0.099818
    179 H80        -2.5510    4.9540   -2.9940 hn        1 MOL      0.185181
    180 Ca1         4.4390    1.7470    0.9710 Ca        1 MOL      1.833765
    181 O27         3.0170    1.9390    3.1370 oh        1 MOL     -0.980439
    182 H81         2.6420    2.7160    3.5630 ho        1 MOL      0.453800
    183 H82         3.1630    1.3170    3.8490 ho        1 MOL      0.453800
    184 O28         4.4550    4.4710    1.1580 oh        1 MOL     -0.980439
    185 H83         5.1960    5.0580    0.9930 ho        1 MOL      0.453800
    186 H84         3.6850    5.0270    1.0770 ho        1 MOL      0.453800
    187 O29         5.9280    0.4170    2.5380 oh        1 MOL     -0.980439
    188 H85         6.8800    0.4430    2.5520 ho        1 MOL      0.453800
    189 H86         5.6860    0.0010    3.3620 ho        1 MOL      0.453800
@<TRIPOS>BOND
     1    1    2 1   
     2    1    4 1   
     3    1    5 1   
     4    1    6 1   
     5    2    3 2   
     6    2    7 1   
     7    7    8 1   
     8    7   15 1   
     9    8    9 1   
    10    8   11 1   
    11    8   16 1   
    12    9   10 2   
    13    9   19 1   
    14   11   12 1   
    15   11   17 1   
    16   11   18 1   
    17   12   13 1   
    18   12   14 1   
    19   19   20 1   
    20   19   27 1   
    21   20   21 1   
    22   20   23 1   
    23   20   28 1   
    24   21   22 2   
    25   21   38 1   
    26   23   24 1   
    27   23   25 1   
    28   23   29 1   
    29   24   26 1   
    30   24   30 1   
    31   24   31 1   
    32   25   32 1   
    33   25   33 1   
    34   25   34 1   
    35   26   35 1   
    36   26   36 1   
    37   26   37 1   
    38   38   39 1   
    39   38   46 1   
    40   39   40 1   
    41   39   42 1   
    42   39   47 1   
    43   40   41 2   
    44   40   50 1   
    45   42   43 1   
    46   42   48 1   
    47   42   49 1   
    48   43   44 1   
    49   43   45 1   
    50   50   51 1   
    51   50   54 1   
    52   51   52 1   
    53   51   55 1   
    54   51   56 1   
    55   52   53 2   
    56   52   57 1   
    57   57   58 1   
    58   57   65 1   
    59   58   59 1   
    60   58   61 1   
    61   58   66 1   
    62   59   60 2   
    63   59   69 1   
    64   61   62 1   
    65   61   67 1   
    66   61   68 1   
    67   62   63 1   
    68   62   64 1   
    69   69   70 1   
    70   69   73 1   
    71   70   71 1   
    72   70   74 1   
    73   70   75 1   
    74   71   72 2   
    75   71   76 1   
    76   76   77 1   
    77   76   85 1   
    78   77   78 1   
    79   77   80 1   
    80   77   86 1   
    81   78   79 2   
    82   78   93 1   
    83   80   81 1   
    84   80   87 1   
    85   80   88 1   
    86   81   82 1   
    87   81   89 1   
    88   81   90 1   
    89   82   83 1   
    90   82   84 2   
    91   83   91 1   
    92   83   92 1   
    93   93   94 1   
    94   93  100 1   
    95   94   95 1   
    96   94   97 1   
    97   94  101 1   
    98   95   96 2   
    99   95  109 1   
   100   97   98 1   
   101   97   99 1   
   102   97  102 1   
   103   98  103 1   
   104   98  104 1   
   105   98  105 1   
   106   99  106 1   
   107   99  107 1   
   108   99  108 1   
   109  109  110 1   
   110  109  117 1   
   111  110  111 1   
   112  110  113 1   
   113  110  118 1   
   114  111  112 2   
   115  111  123 1   
   116  113  114 1   
   117  113  119 1   
   118  113  120 1   
   119  114  115 1   
   120  114  116 2   
   121  115  121 1   
   122  115  122 1   
   123  123  124 1   
   124  123  135 1   
   125  124  125 1   
   126  124  127 1   
   127  124  136 1   
   128  125  126 2   
   129  125  144 1   
   130  127  128 1   
   131  127  137 1   
   132  127  138 1   
   133  128  129 ar  
   134  128  130 ar  
   135  129  131 ar  
   136  129  139 1   
   137  130  132 ar  
   138  130  140 1   
   139  131  133 ar  
   140  131  141 1   
   141  132  133 ar  
   142  132  142 1   
   143  133  134 1   
   144  134  143 1   
   145  144  145 1   
   146  144  153 1   
   147  145  146 1   
   148  145  148 1   
   149  145  154 1   
   150  146  147 2   
   151  146  159 1   
   152  148  149 1   
   153  148  155 1   
   154  148  156 1   
   155  149  150 1   
   156  149  157 1   
   157  149  158 1   
   158  150  151 1   
   159  150  152 1   
   160  159  160 1   
   161  159  168 1   
   162  160  161 1   
   163  160  163 1   
   164  160  169 1   
   165  161  162 2   
   166  161  174 1   
   167  163  164 1   
   168  163  170 1   
   169  163  171 1   
   170  164  165 1   
   171  164  172 1   
   172  164  173 1   
   173  165  166 1   
   174  165  167 1   
   175  174  175 1   
   176  174  179 1   
   177  175  176 1   
   178  175  177 1   
   179  175  178 1   
   180  181  182 1   
   181  181  183 1   
   182  184  185 1   
   183  184  186 1   
   184  187  188 1   
   185  187  189 1   
@<TRIPOS>SUBSTRUCTURE
     1 MOL         1 TEMP              0 ****  ****    0 ROOT
