@<TRIPOS>MOLECULE
MOL
  178   175     1     0     0
SMALL
resp


@<TRIPOS>ATOM
      1 C1        -10.3660    6.6490    1.9350 c3        1 MOL     -0.206371
      2 C2         -9.5880    5.7450    0.9220 c         1 MOL      0.562890
      3 O1         -8.6180    6.1510    0.3310 o         1 MOL     -0.526364
      4 H1        -11.2260    6.1020    2.3220 hc        1 MOL      0.040464
      5 H2         -9.7080    6.9220    2.7610 hc        1 MOL      0.040464
      6 H3        -10.7080    7.5530    1.4300 hc        1 MOL      0.040464
      7 N1        -10.0610    4.5090    0.6960 n         1 MOL     -0.296768
      8 C3        -11.3220    3.8160    1.0070 c3        1 MOL     -0.049790
      9 C4        -11.8640    3.1420   -0.2310 c         1 MOL      0.546884
     10 O2        -11.5160    3.5760   -1.3400 o         1 MOL     -0.489770
     11 C5        -10.9830    2.9060    2.2090 c3        1 MOL     -0.183133
     12 C6         -9.9340    1.8690    1.8300 c         1 MOL      0.760279
     13 O3        -10.2010    0.8590    1.1460 o         1 MOL     -0.772713
     14 O4         -8.7560    2.0900    2.1700 o         1 MOL     -0.772713
     15 H4         -9.4660    3.9480    0.0920 hn        1 MOL      0.303745
     16 H5        -12.0300    4.6010    1.2540 h1        1 MOL      0.095586
     17 H6        -11.8960    2.4390    2.5710 hc        1 MOL      0.026564
     18 H7        -10.5230    3.4360    3.0520 hc        1 MOL      0.026564
     19 N2        -12.7340    2.1040   -0.0830 n         1 MOL     -0.640126
     20 C7        -13.3840    1.2660   -1.0340 c3        1 MOL      0.470691
     21 C8        -12.3730    0.5720   -1.9640 c         1 MOL      0.450303
     22 O5        -12.7050    0.4140   -3.0970 o         1 MOL     -0.545917
     23 C9        -14.6600    1.9480   -1.5660 c3        1 MOL     -0.442125
     24 H8        -12.8790    1.8260    0.8700 hn        1 MOL      0.318850
     25 H9        -13.7770    0.3910   -0.5100 h1        1 MOL     -0.042435
     26 H10       -14.3800    2.7320   -2.2700 hc        1 MOL      0.110518
     27 H11       -15.0990    1.2050   -2.2260 hc        1 MOL      0.110518
     28 H12       -15.3140    2.2970   -0.7770 hc        1 MOL      0.110518
     29 N3        -11.1200    0.3270   -1.5580 n         1 MOL     -0.449640
     30 C10       -10.0530    0.0010   -2.5470 c3        1 MOL      0.113606
     31 C11        -9.0900   -1.1220   -1.9810 c         1 MOL      0.519122
     32 O6         -9.2130   -1.4560   -0.8120 o         1 MOL     -0.519601
     33 C12        -9.2720    1.3100   -2.9220 c3        1 MOL     -0.349490
     34 C13        -8.4010    1.9840   -1.7910 c         1 MOL      0.758251
     35 O7         -7.7910    1.2400   -0.9870 o         1 MOL     -0.695127
     36 O8         -8.4040    3.2000   -1.6070 o         1 MOL     -0.695127
     37 H13       -10.9030    0.6300   -0.6180 hn        1 MOL      0.248199
     38 H14       -10.4070   -0.4470   -3.4720 h1        1 MOL      0.050915
     39 H15       -10.0250    2.0380   -3.2360 hc        1 MOL      0.110487
     40 H16        -8.6560    1.1210   -3.7950 hc        1 MOL      0.110487
     41 N4         -8.2340   -1.6870   -2.8500 n         1 MOL     -0.483738
     42 C14        -7.2530   -2.7170   -2.4660 c3        1 MOL     -0.113053
     43 C15        -6.2360   -2.3750   -1.3120 c         1 MOL      0.673889
     44 O9         -6.2980   -1.2960   -0.6810 o         1 MOL     -0.619892
     45 H17        -8.1200   -1.3270   -3.7940 hn        1 MOL      0.334196
     46 H18        -6.6790   -3.0150   -3.3400 h1        1 MOL      0.097957
     47 H19        -7.8020   -3.5680   -2.0650 h1        1 MOL      0.097957
     48 N5         -5.3390   -3.3240   -0.9710 n         1 MOL     -0.740518
     49 C16        -4.4960   -3.2450    0.2750 c3        1 MOL      0.515029
     50 C17        -2.9760   -3.4610    0.1520 c         1 MOL      0.502064
     51 O10        -2.3750   -4.3020    0.8390 o         1 MOL     -0.552727
     52 C18        -5.2140   -4.0400    1.4210 c3        1 MOL     -0.430774
     53 C19        -6.6530   -3.6150    1.5250 c         1 MOL      0.795664
     54 N6         -7.5730   -4.5260    1.3930 n         1 MOL     -0.719839
     55 O11        -7.0620   -2.5160    1.9440 o         1 MOL     -0.710612
     56 H20        -5.1340   -4.1160   -1.5690 hn        1 MOL      0.327578
     57 H21        -4.5910   -2.2410    0.6920 h1        1 MOL     -0.048193
     58 H22        -4.7200   -3.8500    2.3660 hc        1 MOL      0.094399
     59 H23        -5.1380   -5.1010    1.1450 hc        1 MOL      0.094399
     60 H24        -7.2810   -5.4360    1.0710 hn        1 MOL      0.330735
     61 H25        -8.5000   -4.4350    1.7740 hn        1 MOL      0.330735
     62 N7         -2.5060   -2.7930   -0.8720 n         1 MOL     -0.476106
     63 C20        -1.0870   -2.6650   -1.2590 c3        1 MOL     -0.032056
     64 C21        -0.5160   -4.0560   -1.7100 c         1 MOL      0.596829
     65 O12        -0.9910   -4.5070   -2.7450 o         1 MOL     -0.563700
     66 H26        -3.1430   -2.3140   -1.4890 hn        1 MOL      0.325129
     67 H27        -0.5200   -2.3660   -0.3860 h1        1 MOL      0.088231
     68 H28        -1.0040   -1.9230   -2.0420 h1        1 MOL      0.088231
     69 N8          0.5110   -4.6620   -1.0690 n         1 MOL     -0.532515
     70 C22         1.1730   -4.3500    0.2220 c3        1 MOL      0.316195
     71 C23         2.0240   -3.0750    0.1370 c         1 MOL      0.562333
     72 O13         2.1430   -2.4940   -0.9470 o         1 MOL     -0.522953
     73 C24         1.9380   -5.5470    0.7870 c3        1 MOL      0.204640
     74 C25         1.1090   -6.7030    1.2550 c3        1 MOL     -0.276137
     75 O14         2.6810   -6.2030   -0.2860 oh        1 MOL     -0.612000
     76 H29         0.8880   -5.4770   -1.5170 hn        1 MOL      0.326869
     77 H30         0.4150   -4.1100    0.9620 h1        1 MOL      0.011903
     78 H31         2.5790   -5.2260    1.6130 h1        1 MOL      0.059792
     79 H32         3.1500   -6.9330    0.1310 ho        1 MOL      0.400948
     80 H33         1.4590   -7.7050    0.9990 hc        1 MOL      0.057324
     81 H34         1.0570   -6.6130    2.3440 hc        1 MOL      0.057324
     82 H35         0.0880   -6.6330    0.8860 hc        1 MOL      0.057324
     83 N9          2.5430   -2.5420    1.2330 n         1 MOL     -0.572167
     84 C26         3.6930   -1.6390    1.3800 c3        1 MOL      0.164332
     85 C27         4.9300   -2.5500    1.3840 c         1 MOL      0.548300
     86 O15         4.9870   -3.4850    2.1330 o         1 MOL     -0.615434
     87 C28         3.5900   -0.8160    2.6540 c3        1 MOL      0.162436
     88 C29         3.1070   -1.5310    3.8890 c3        1 MOL      0.132467
     89 C30         2.7370    0.4420    2.3660 c3        1 MOL     -0.290718
     90 C31         2.9820   -0.7060    5.1650 c3        1 MOL     -0.218605
     91 H36         2.3450   -3.0720    2.0650 hn        1 MOL      0.153885
     92 H37         3.8140   -1.0400    0.4810 h1        1 MOL      0.103831
     93 H38         4.6340   -0.5810    2.8730 hc        1 MOL     -0.006570
     94 H39         3.7770   -2.3740    4.0670 hc        1 MOL     -0.024702
     95 H40         2.0820   -1.8970    3.7680 hc        1 MOL     -0.024702
     96 H41         3.0010    0.8780    1.4030 hc        1 MOL      0.059311
     97 H42         1.7160    0.0580    2.3260 hc        1 MOL      0.059311
     98 H43         2.7860    1.2190    3.1340 hc        1 MOL      0.059311
     99 H44         3.9180   -0.1900    5.3700 hc        1 MOL      0.044238
    100 H45         2.2420    0.1010    5.2180 hc        1 MOL      0.044238
    101 H46         2.8500   -1.4060    5.9880 hc        1 MOL      0.044238
    102 N10         6.0490   -2.1890    0.7250 n         1 MOL     -0.339050
    103 C32         6.4010   -0.9900   -0.0310 c3        1 MOL     -0.065032
    104 C33         7.7220   -0.3550    0.4280 c         1 MOL      0.361888
    105 O16         7.5900    0.6130    1.2200 o         1 MOL     -0.530297
    106 C34         6.2540   -1.2220   -1.5130 c3        1 MOL     -0.012592
    107 C35         6.6790   -2.5830   -2.0720 c         1 MOL      0.618490
    108 O17         7.8350   -2.9990   -1.7570 o         1 MOL     -0.672182
    109 O18         5.9350   -3.2030   -2.8120 o         1 MOL     -0.672182
    110 H47         6.7460   -2.9180    0.7690 hn        1 MOL      0.250399
    111 H48         5.7020   -0.2010    0.2730 h1        1 MOL      0.049019
    112 H49         6.9350   -0.5320   -2.0220 hc        1 MOL      0.042912
    113 H50         5.2240   -1.0130   -1.7960 hc        1 MOL      0.042912
    114 N11         8.8410   -0.8630   -0.0400 n         1 MOL     -0.298061
    115 C36        10.1780   -0.2860    0.0740 c3        1 MOL      0.439738
    116 C37        10.6160    0.3410   -1.2840 c         1 MOL      0.204499
    117 O19        10.5690   -0.4230   -2.2650 o         1 MOL     -0.479451
    118 C38        11.2650   -1.3400    0.5770 c3        1 MOL     -0.343756
    119 C39        12.6810   -0.7600    0.7250 ca        1 MOL      0.110504
    120 C40        13.6160   -0.9280   -0.2830 ca        1 MOL     -0.154418
    121 C41        13.0900   -0.0300    1.8870 ca        1 MOL     -0.154418
    122 C42        14.8740   -0.3060   -0.2900 ca        1 MOL     -0.123646
    123 C43        14.3260    0.5650    1.8940 ca        1 MOL     -0.123646
    124 C44        15.2200    0.5670    0.7740 ca        1 MOL     -0.145058
    125 H51         8.7640   -1.5840   -0.7360 hn        1 MOL      0.152474
    126 H52        10.1010    0.4500    0.8670 h1        1 MOL     -0.012276
    127 H53        11.1750   -2.0750   -0.2200 hc        1 MOL      0.108908
    128 H54        10.8990   -1.7790    1.5070 hc        1 MOL      0.108908
    129 H55        13.3930   -1.5920   -1.0980 ha        1 MOL      0.128548
    130 H56        12.4120   -0.0440    2.7240 ha        1 MOL      0.128548
    131 H57        15.4410   -0.4410   -1.1920 ha        1 MOL      0.102783
    132 H58        14.6450    1.0860    2.7840 ha        1 MOL      0.102783
    133 H59        16.1470    1.1250    0.7090 ha        1 MOL      0.108712
    134 N12        11.1020    1.5680   -1.3460 n         1 MOL      0.022141
    135 C45        11.1970    2.5740   -0.3130 c3        1 MOL      0.298206
    136 C46         9.8510    3.0240    0.2830 c         1 MOL      0.225874
    137 O20         9.8440    3.1920    1.4980 o         1 MOL     -0.539226
    138 C47        12.0980    3.7340   -0.8440 c3        1 MOL     -0.111889
    139 C48        12.6790    3.1800   -2.1100 c3        1 MOL     -0.001521
    140 C49        11.6880    2.1220   -2.5920 c3        1 MOL     -0.055876
    141 H60        11.7140    2.1370    0.5340 h1        1 MOL     -0.046380
    142 H61        11.4090    4.5390   -1.0820 hc        1 MOL      0.037913
    143 H62        12.8860    4.0820   -0.1680 hc        1 MOL      0.037913
    144 H63        12.9790    3.9450   -2.8320 hc        1 MOL      0.004583
    145 H64        13.5620    2.5930   -1.8430 hc        1 MOL      0.004583
    146 H65        10.9510    2.5640   -3.2670 h1        1 MOL      0.054942
    147 H66        12.2290    1.3810   -3.1830 h1        1 MOL      0.054942
    148 N13         8.7580    3.2190   -0.4660 n         1 MOL     -0.196640
    149 C50         7.5980    3.9780   -0.0050 c3        1 MOL      0.294689
    150 C51         8.0000    5.4230    0.2660 c         1 MOL      0.265453
    151 O21         8.3050    6.2010   -0.6440 o         1 MOL     -0.542724
    152 C52         6.5310    3.7710   -1.0820 c3        1 MOL      0.062574
    153 C53         6.0500    2.3820   -1.3760 c3        1 MOL     -0.279822
    154 C54         5.4070    2.2840   -2.8010 c         1 MOL      0.652976
    155 O22         6.1600    2.2890   -3.7750 o         1 MOL     -0.666315
    156 O23         4.1380    2.0730   -2.9290 o         1 MOL     -0.666315
    157 H67         8.9570    3.1170   -1.4560 hn        1 MOL      0.184361
    158 H68         7.1480    3.3970    0.8010 h1        1 MOL      0.029858
    159 H69         6.8540    4.3320   -1.9600 hc        1 MOL     -0.018723
    160 H70         5.6650    4.3000   -0.6780 hc        1 MOL     -0.018723
    161 H71         5.4140    2.0250   -0.5690 hc        1 MOL      0.059585
    162 H72         6.9550    1.7740   -1.3970 hc        1 MOL      0.059585
    163 N14         8.0190    5.8540    1.5290 n         1 MOL     -0.182379
    164 C55         7.5360    5.2780    2.7790 c3        1 MOL     -0.235928
    165 H73         6.4460    5.3270    2.8040 h1        1 MOL      0.094677
    166 H74         7.8540    4.2380    2.8480 h1        1 MOL      0.094677
    167 H75         7.9430    5.8400    3.6200 h1        1 MOL      0.094677
    168 H76         8.3010    6.8150    1.6710 hn        1 MOL      0.228539
    169 Ca1        -7.7460   -0.0970    1.0990 Ca        1 MOL      1.789908
    170 O24        -5.3730    0.8340    1.7180 oh        1 MOL     -0.792978
    171 H77        -4.6500    1.1190    1.1670 ho        1 MOL      0.394626
    172 H78        -4.9880    0.7640    2.5940 ho        1 MOL      0.394626
    173 O25        -9.9030   -1.6950    2.3780 oh        1 MOL     -0.792978
    174 H79        -9.9120   -2.6260    2.6030 ho        1 MOL      0.394626
    175 H80       -10.4170   -1.2650    3.0620 ho        1 MOL      0.394626
    176 O26        -6.7730   -0.2200    3.8380 oh        1 MOL     -0.792978
    177 H81        -7.3960   -0.4820    4.5170 ho        1 MOL      0.394626
    178 H82        -5.9360   -0.1580    4.2990 ho        1 MOL      0.394626
@<TRIPOS>BOND
     1    1    2 1   
     2    1    4 1   
     3    1    5 1   
     4    1    6 1   
     5    2    3 2   
     6    2    7 1   
     7    7    8 1   
     8    7   15 1   
     9    8    9 1   
    10    8   11 1   
    11    8   16 1   
    12    9   10 2   
    13    9   19 1   
    14   11   12 1   
    15   11   17 1   
    16   11   18 1   
    17   12   13 1   
    18   12   14 1   
    19   19   20 1   
    20   19   24 1   
    21   20   21 1   
    22   20   23 1   
    23   20   25 1   
    24   21   22 2   
    25   21   29 1   
    26   23   26 1   
    27   23   27 1   
    28   23   28 1   
    29   29   30 1   
    30   29   37 1   
    31   30   31 1   
    32   30   33 1   
    33   30   38 1   
    34   31   32 2   
    35   31   41 1   
    36   33   34 1   
    37   33   39 1   
    38   33   40 1   
    39   34   35 1   
    40   34   36 1   
    41   41   42 1   
    42   41   45 1   
    43   42   43 1   
    44   42   46 1   
    45   42   47 1   
    46   43   44 2   
    47   43   48 1   
    48   48   49 1   
    49   48   56 1   
    50   49   50 1   
    51   49   52 1   
    52   49   57 1   
    53   50   51 2   
    54   50   62 1   
    55   52   53 1   
    56   52   58 1   
    57   52   59 1   
    58   53   54 1   
    59   53   55 2   
    60   54   60 1   
    61   54   61 1   
    62   62   63 1   
    63   62   66 1   
    64   63   64 1   
    65   63   67 1   
    66   63   68 1   
    67   64   65 2   
    68   64   69 1   
    69   69   70 1   
    70   69   76 1   
    71   70   71 1   
    72   70   73 1   
    73   70   77 1   
    74   71   72 2   
    75   71   83 1   
    76   73   74 1   
    77   73   75 1   
    78   73   78 1   
    79   74   80 1   
    80   74   81 1   
    81   74   82 1   
    82   75   79 1   
    83   83   84 1   
    84   83   91 1   
    85   84   85 1   
    86   84   87 1   
    87   84   92 1   
    88   85   86 2   
    89   85  102 1   
    90   87   88 1   
    91   87   89 1   
    92   87   93 1   
    93   88   90 1   
    94   88   94 1   
    95   88   95 1   
    96   89   96 1   
    97   89   97 1   
    98   89   98 1   
    99   90   99 1   
   100   90  100 1   
   101   90  101 1   
   102  102  103 1   
   103  102  110 1   
   104  103  104 1   
   105  103  106 1   
   106  103  111 1   
   107  104  105 2   
   108  104  114 1   
   109  106  107 1   
   110  106  112 1   
   111  106  113 1   
   112  107  108 1   
   113  107  109 1   
   114  114  115 1   
   115  114  125 1   
   116  115  116 1   
   117  115  118 1   
   118  115  126 1   
   119  116  117 2   
   120  116  134 1   
   121  118  119 1   
   122  118  127 1   
   123  118  128 1   
   124  119  120 ar  
   125  119  121 ar  
   126  120  122 ar  
   127  120  129 1   
   128  121  123 ar  
   129  121  130 1   
   130  122  124 ar  
   131  122  131 1   
   132  123  124 ar  
   133  123  132 1   
   134  124  133 1   
   135  134  135 1   
   136  134  140 1   
   137  135  136 1   
   138  135  138 1   
   139  135  141 1   
   140  136  137 2   
   141  136  148 1   
   142  138  139 1   
   143  138  142 1   
   144  138  143 1   
   145  139  140 1   
   146  139  144 1   
   147  139  145 1   
   148  140  146 1   
   149  140  147 1   
   150  148  149 1   
   151  148  157 1   
   152  149  150 1   
   153  149  152 1   
   154  149  158 1   
   155  150  151 2   
   156  150  163 1   
   157  152  153 1   
   158  152  159 1   
   159  152  160 1   
   160  153  154 1   
   161  153  161 1   
   162  153  162 1   
   163  154  155 1   
   164  154  156 1   
   165  163  164 1   
   166  163  168 1   
   167  164  165 1   
   168  164  166 1   
   169  164  167 1   
   170  170  171 1   
   171  170  172 1   
   172  173  174 1   
   173  173  175 1   
   174  176  177 1   
   175  176  178 1   
@<TRIPOS>SUBSTRUCTURE
     1 MOL         1 TEMP              0 ****  ****    0 ROOT
