@<TRIPOS>MOLECULE
MOL
  188   182     1     0     0
SMALL
resp


@<TRIPOS>ATOM
      1 C1         -6.2140    3.0720   -2.3400 c3        1 MOL     -0.441415
      2 C2         -7.1300    2.3510   -1.3010 c         1 MOL      0.641396
      3 O1         -6.5690    1.6130   -0.4310 o         1 MOL     -0.564088
      4 H1         -6.8290    3.4950   -3.1350 hc        1 MOL      0.110083
      5 H2         -5.6620    3.8710   -1.8450 hc        1 MOL      0.110083
      6 H3         -5.5120    2.3560   -2.7660 hc        1 MOL      0.110083
      7 N1         -8.4180    2.4880   -1.4350 n         1 MOL     -0.541834
      8 C3         -9.5260    2.2210   -0.4690 c3        1 MOL      0.264573
      9 C4         -9.4670    0.8070    0.1850 c         1 MOL      0.431739
     10 O2        -10.0690    0.5940    1.2210 o         1 MOL     -0.479448
     11 C5         -9.7090    3.4130    0.5000 c3        1 MOL     -0.320773
     12 C6        -11.0430    3.5120    1.1400 c         1 MOL      0.698363
     13 O3        -12.0030    3.1020    0.4710 o         1 MOL     -0.666396
     14 O4        -11.2470    4.1240    2.2220 o         1 MOL     -0.666396
     15 H4         -8.6000    3.0220   -2.2770 hn        1 MOL      0.309811
     16 H5        -10.4080    2.2080   -1.1040 h1        1 MOL     -0.001023
     17 H6         -9.5570    4.3400   -0.0550 hc        1 MOL      0.098799
     18 H7         -8.8560    3.5010    1.1840 hc        1 MOL      0.098799
     19 N2         -8.8270   -0.1540   -0.5000 n         1 MOL     -0.355678
     20 C7         -8.6520   -1.5950   -0.1140 c3        1 MOL      0.127767
     21 C8         -7.2040   -2.1140   -0.0550 c         1 MOL      0.535664
     22 O5         -6.9760   -3.2930    0.0930 o         1 MOL     -0.559302
     23 C9         -9.5160   -2.5230   -0.9750 c3        1 MOL     -0.026753
     24 C10       -11.0150   -2.3780   -0.7000 c3        1 MOL     -0.065599
     25 C11       -11.8600   -3.0100   -1.8540 c3        1 MOL     -0.064930
     26 C12       -13.3100   -2.9330   -1.3810 c3        1 MOL      0.022261
     27 N3        -14.2820   -3.2970   -2.4390 n4        1 MOL     -0.312874
     28 H8         -8.5530    0.1550   -1.4180 hn        1 MOL      0.187499
     29 H9         -8.9350   -1.7330    0.9350 h1        1 MOL      0.078344
     30 H10        -9.2450   -3.5300   -0.6640 hc        1 MOL      0.015514
     31 H11        -9.2910   -2.4910   -2.0390 hc        1 MOL      0.015514
     32 H12       -11.2610   -1.3410   -0.4730 hc        1 MOL      0.052860
     33 H13       -11.2830   -2.9450    0.1980 hc        1 MOL      0.052860
     34 H14       -11.6330   -4.0690   -1.9470 hc        1 MOL      0.042355
     35 H15       -11.6570   -2.3950   -2.7370 hc        1 MOL      0.042355
     36 H16       -13.4680   -1.8630   -1.2310 hx        1 MOL      0.091829
     37 H17       -13.3580   -3.5410   -0.4690 hx        1 MOL      0.091829
     38 H18       -15.2020   -3.1730   -2.0440 hn        1 MOL      0.259794
     39 H19       -14.2120   -2.6170   -3.1800 hn        1 MOL      0.259794
     40 H20       -14.2660   -4.2590   -2.7420 hn        1 MOL      0.259794
     41 N4         -6.2460   -1.2250   -0.3040 n         1 MOL     -0.371514
     42 C13        -4.8420   -1.5720   -0.4180 c3        1 MOL     -0.135055
     43 C14        -4.3310   -2.4820    0.7340 c         1 MOL      0.545737
     44 O6         -4.4430   -2.1400    1.9270 o         1 MOL     -0.471908
     45 C15        -4.0740   -0.2630   -0.6100 c3        1 MOL      0.034197
     46 C16        -2.5850   -0.5060   -0.8210 c         1 MOL      0.403595
     47 O7         -2.0390   -0.1850   -1.8850 o         1 MOL     -0.638582
     48 O8         -1.9260   -1.1400    0.0110 o         1 MOL     -0.638582
     49 H21        -6.4780   -0.2540   -0.4660 hn        1 MOL      0.236651
     50 H22        -4.7920   -2.0900   -1.3730 h1        1 MOL      0.047524
     51 H23        -4.3040    0.3800    0.2410 hc        1 MOL      0.081615
     52 H24        -4.4290    0.3270   -1.4570 hc        1 MOL      0.081615
     53 N5         -3.5780   -3.4660    0.3350 n         1 MOL     -0.282387
     54 C17        -3.0920   -4.5830    1.1530 c3        1 MOL     -0.208699
     55 C18        -2.0580   -4.2240    2.2360 c         1 MOL      0.494678
     56 O9         -1.8120   -5.0490    3.1040 o         1 MOL     -0.551515
     57 H25        -3.4030   -3.5290   -0.6540 hn        1 MOL      0.240393
     58 H26        -2.6710   -5.3250    0.4920 h1        1 MOL      0.118696
     59 H27        -4.0520   -4.9740    1.5180 h1        1 MOL      0.118696
     60 N6         -1.5040   -3.0390    2.1570 n         1 MOL     -0.061350
     61 C19        -0.7750   -2.3320    3.2350 c3        1 MOL     -0.146555
     62 C20        -1.0750   -0.8160    3.2920 c         1 MOL      0.438261
     63 O10        -0.3130   -0.0620    3.9190 o         1 MOL     -0.531657
     64 C21         0.7660   -2.6250    3.1620 c3        1 MOL     -0.168206
     65 C22         1.6350   -2.1320    2.0400 c         1 MOL      0.772124
     66 N7          2.8440   -2.6070    1.9650 n         1 MOL     -0.802801
     67 O11         1.1740   -1.3470    1.2630 o         1 MOL     -0.554062
     68 H28        -1.7810   -2.4220    1.4000 hn        1 MOL      0.141955
     69 H29        -1.0170   -2.7150    4.2280 h1        1 MOL      0.146802
     70 H30         0.8280   -3.7110    3.1380 hc        1 MOL      0.054443
     71 H31         1.2720   -2.2150    4.0410 hc        1 MOL      0.054443
     72 H32         3.1310   -3.3570    2.5720 hn        1 MOL      0.357794
     73 H33         3.4630   -2.3030    1.2280 hn        1 MOL      0.357794
     74 N8         -2.1970   -0.3590    2.7010 n         1 MOL      0.005680
     75 C23        -2.8360    0.9840    2.8740 c3        1 MOL     -0.351048
     76 C24        -2.1890    2.1390    2.0970 c         1 MOL      0.580626
     77 O12        -2.6150    3.2970    2.2780 o         1 MOL     -0.548324
     78 H34        -2.6850   -1.0440    2.1310 hn        1 MOL     -0.037655
     79 H35        -2.8160    1.2250    3.9320 h1        1 MOL      0.179490
     80 H36        -3.8500    0.9990    2.4810 h1        1 MOL      0.179490
     81 N9         -1.3360    1.8810    1.1200 n         1 MOL     -0.337992
     82 C25        -0.5550    2.9150    0.4070 c3        1 MOL     -0.138548
     83 C26         0.7600    2.1960   -0.1290 c         1 MOL      0.638080
     84 O13         0.6220    1.0880   -0.5180 o         1 MOL     -0.582254
     85 C27        -1.3610    3.4110   -0.8140 c3        1 MOL     -0.067387
     86 C28        -0.5160    4.0810   -1.8470 ca        1 MOL     -0.171015
     87 C29         0.1760    5.3070   -1.5150 ca        1 MOL      0.007763
     88 C30        -0.1750    3.4930   -3.0270 ca        1 MOL      0.007763
     89 C31         1.1010    5.9150   -2.4070 ca        1 MOL     -0.403702
     90 C32         0.6700    4.0990   -4.0250 ca        1 MOL     -0.403702
     91 C33         1.2160    5.3520   -3.6770 ca        1 MOL      0.492948
     92 O14         1.9650    5.9700   -4.6510 oh        1 MOL     -0.521808
     93 H37        -1.0680    0.9180    0.9750 hn        1 MOL      0.194236
     94 H38        -0.3210    3.7230    1.1020 h1        1 MOL      0.107696
     95 H39        -2.0840    4.1610   -0.4900 hc        1 MOL      0.117950
     96 H40        -1.9680    2.6300   -1.2830 hc        1 MOL      0.117950
     97 H41         0.0650    5.7660   -0.5490 ha        1 MOL      0.103067
     98 H42        -0.7450    2.6200   -3.3090 ha        1 MOL      0.103067
     99 H43         1.6620    6.7890   -2.1030 ha        1 MOL      0.178734
    100 H44         0.8890    3.5930   -4.9510 ha        1 MOL      0.178734
    101 H45         2.1380    5.4560   -5.4450 ho        1 MOL      0.372428
    102 N10         1.9030    2.8340    0.1180 n         1 MOL     -0.387994
    103 C34         3.2210    2.2890    0.0840 c3        1 MOL     -0.044926
    104 C35         3.5310    1.2500    1.2240 c         1 MOL      0.582118
    105 O15         3.7150    0.1070    0.8870 o         1 MOL     -0.637062
    106 C36         4.2450    3.4010    0.1270 c3        1 MOL      0.066809
    107 C37         4.0590    4.4850   -0.9590 c3        1 MOL      0.344039
    108 C38         5.6630    2.9270    0.0970 c3        1 MOL     -0.471980
    109 C39         3.9980    3.9400   -2.3810 c3        1 MOL     -0.077775
    110 H46         1.9160    3.7490    0.5540 hn        1 MOL      0.249899
    111 H47         3.2200    1.7870   -0.8790 h1        1 MOL      0.081233
    112 H48         4.1650    3.9990    1.0300 hc        1 MOL     -0.017966
    113 H49         4.8500    5.2300   -0.9120 hc        1 MOL     -0.077733
    114 H50         3.1510    5.0030   -0.6510 hc        1 MOL     -0.077733
    115 H51         6.2820    3.8210    0.0010 hc        1 MOL      0.127687
    116 H52         5.9630    2.3420    0.9700 hc        1 MOL      0.127687
    117 H53         5.9730    2.3140   -0.7520 hc        1 MOL      0.127687
    118 H54         3.7040    4.6980   -3.1100 hc        1 MOL      0.002301
    119 H55         4.9090    3.4090   -2.6780 hc        1 MOL      0.002301
    120 H56         3.1420    3.2620   -2.4000 hc        1 MOL      0.002301
    121 N11         3.4510    1.6190    2.5240 n         1 MOL     -0.302132
    122 C40         3.6620    0.6650    3.6540 c3        1 MOL     -0.062145
    123 C41         5.1150    0.3400    3.9000 c         1 MOL      0.568384
    124 O16         5.3920   -0.7240    4.4670 o         1 MOL     -0.539778
    125 C42         3.0620    1.2700    4.9350 c3        1 MOL      0.123045
    126 O17         3.6970    2.5300    5.2650 oh        1 MOL     -0.661825
    127 H57         3.1870    2.5650    2.7370 hn        1 MOL      0.240199
    128 H58         3.0880   -0.2170    3.3630 h1        1 MOL      0.068965
    129 H59         3.1960    0.6060    5.7850 h1        1 MOL      0.066527
    130 H60         1.9930    1.4510    4.7910 h1        1 MOL      0.066527
    131 H61         3.2140    2.9080    6.0010 ho        1 MOL      0.433232
    132 N12         5.9650    1.2460    3.5160 n         1 MOL     -0.223133
    133 C43         7.4420    1.1550    3.5400 c3        1 MOL      0.052178
    134 C44         8.0180   -0.1400    2.8570 c         1 MOL      0.581650
    135 O18         8.9660   -0.7650    3.2860 o         1 MOL     -0.550962
    136 C45         7.9260    1.5610    4.9380 c3        1 MOL     -0.444593
    137 H62         5.5970    2.0950    3.1210 hn        1 MOL      0.209121
    138 H63         7.8460    1.9210    2.8800 h1        1 MOL      0.069679
    139 H64         7.4530    0.8180    5.5800 hc        1 MOL      0.134171
    140 H65         8.9970    1.5940    5.1130 hc        1 MOL      0.134171
    141 H66         7.4930    2.5300    5.1890 hc        1 MOL      0.134171
    142 N13         7.4140   -0.5370    1.7900 n         1 MOL     -0.504768
    143 C46         7.6890   -1.7000    0.9240 c3        1 MOL      0.382376
    144 C47         8.4460   -1.2600   -0.3200 c         1 MOL      0.328309
    145 O19         8.1250   -0.2370   -0.9240 o         1 MOL     -0.481039
    146 C48         6.3820   -2.4430    0.6690 c3        1 MOL     -0.340664
    147 H67         6.6700    0.0620    1.4590 hn        1 MOL      0.194785
    148 H68         8.3670   -2.2290    1.5980 h1        1 MOL      0.013548
    149 H69         6.2120   -3.0290    1.5720 hc        1 MOL      0.100702
    150 H70         5.6390   -1.6600    0.5150 hc        1 MOL      0.100702
    151 H71         6.4820   -3.1000   -0.1920 hc        1 MOL      0.100702
    152 N14         9.2900   -2.1100   -0.8810 n         1 MOL     -0.295407
    153 C49        10.0980   -1.8450   -2.1430 c3        1 MOL      0.013789
    154 C50        10.8000   -0.5280   -2.2560 c         1 MOL      0.346800
    155 O20        11.0770   -0.0090   -3.3710 o         1 MOL     -0.485204
    156 C51         9.2320   -2.1370   -3.3570 c3        1 MOL      0.226620
    157 C52         8.6630   -3.5690   -3.4490 c3        1 MOL     -0.130748
    158 C53         7.7030   -3.5710   -4.6450 c         1 MOL      0.607223
    159 O21         8.1070   -3.1690   -5.7600 o         1 MOL     -0.669091
    160 O22         6.4600   -3.6570   -4.4570 o         1 MOL     -0.669091
    161 H72         9.5400   -2.8650   -0.2660 hn        1 MOL      0.204737
    162 H73        10.8830   -2.5920   -2.0620 h1        1 MOL      0.055021
    163 H74         9.8960   -2.0020   -4.2190 hc        1 MOL      0.009372
    164 H75         8.4320   -1.3960   -3.3510 hc        1 MOL      0.009372
    165 H76         8.0560   -3.7950   -2.5770 hc        1 MOL     -0.027668
    166 H77         9.4200   -4.3440   -3.5920 hc        1 MOL     -0.027668
    167 N15        11.1700    0.1460   -1.1570 n         1 MOL     -0.258655
    168 C54        11.4590    1.5860   -1.1260 c3        1 MOL     -0.064958
    169 H78        12.5330    1.7390   -1.0250 h1        1 MOL      0.065318
    170 H79        11.1120    2.0470   -2.0510 h1        1 MOL      0.065318
    171 H80        10.9470    2.0420   -0.2790 h1        1 MOL      0.065318
    172 H81        11.0990   -0.3390   -0.2800 hn        1 MOL      0.208602
    173 Ca1         0.1980   -1.3950   -1.3000 Ca        1 MOL      1.804856
    174 O23         1.0690   -3.1250   -3.3060 oh        1 MOL     -0.875669
    175 H82         0.9650   -4.0660   -3.4070 ho        1 MOL      0.430183
    176 H83         1.6150   -2.8680   -4.0500 ho        1 MOL      0.430183
    177 O24        -1.9400   -2.9670   -2.4890 oh        1 MOL     -0.875669
    178 H84        -2.3760   -2.3810   -3.1130 ho        1 MOL      0.430183
    179 H85        -2.1220   -3.8440   -2.8180 ho        1 MOL      0.430183
    180 O25         0.2550   -4.0900   -0.1590 oh        1 MOL     -0.875669
    181 H86         0.4510   -4.7830    0.4750 ho        1 MOL      0.430183
    182 H87        -0.2530   -4.5340   -0.8350 ho        1 MOL      0.430183
    183 O26         2.8970   -1.7230   -1.4760 oh        1 MOL     -0.875669
    184 H88         3.5320   -1.0880   -1.1620 ho        1 MOL      0.430183
    185 H89         3.3040   -2.1200   -2.2480 ho        1 MOL      0.430183
    186 O27         0.6830    0.0150   -3.6170 oh        1 MOL     -0.875669
    187 H90         0.1850    0.2960   -4.3850 ho        1 MOL      0.430183
    188 H91         1.5980    0.0750   -3.8850 ho        1 MOL      0.430183
@<TRIPOS>BOND
     1    1    2 1   
     2    1    4 1   
     3    1    5 1   
     4    1    6 1   
     5    2    3 2   
     6    2    7 1   
     7    7    8 1   
     8    7   15 1   
     9    8    9 1   
    10    8   11 1   
    11    8   16 1   
    12    9   10 2   
    13    9   19 1   
    14   11   12 1   
    15   11   17 1   
    16   11   18 1   
    17   12   13 1   
    18   12   14 1   
    19   19   20 1   
    20   19   28 1   
    21   20   21 1   
    22   20   23 1   
    23   20   29 1   
    24   21   22 2   
    25   21   41 1   
    26   23   24 1   
    27   23   30 1   
    28   23   31 1   
    29   24   25 1   
    30   24   32 1   
    31   24   33 1   
    32   25   26 1   
    33   25   34 1   
    34   25   35 1   
    35   26   27 1   
    36   26   36 1   
    37   26   37 1   
    38   27   38 1   
    39   27   39 1   
    40   27   40 1   
    41   41   42 1   
    42   41   49 1   
    43   42   43 1   
    44   42   45 1   
    45   42   50 1   
    46   43   44 2   
    47   43   53 1   
    48   45   46 1   
    49   45   51 1   
    50   45   52 1   
    51   46   47 1   
    52   46   48 1   
    53   53   54 1   
    54   53   57 1   
    55   54   55 1   
    56   54   58 1   
    57   54   59 1   
    58   55   56 2   
    59   55   60 1   
    60   60   61 1   
    61   60   68 1   
    62   61   62 1   
    63   61   64 1   
    64   61   69 1   
    65   62   63 2   
    66   62   74 1   
    67   64   65 1   
    68   64   70 1   
    69   64   71 1   
    70   65   66 1   
    71   65   67 2   
    72   66   72 1   
    73   66   73 1   
    74   74   75 1   
    75   74   78 1   
    76   75   76 1   
    77   75   79 1   
    78   75   80 1   
    79   76   77 2   
    80   76   81 1   
    81   81   82 1   
    82   81   93 1   
    83   82   83 1   
    84   82   85 1   
    85   82   94 1   
    86   83   84 2   
    87   83  102 1   
    88   85   86 1   
    89   85   95 1   
    90   85   96 1   
    91   86   87 ar  
    92   86   88 ar  
    93   87   89 ar  
    94   87   97 1   
    95   88   90 ar  
    96   88   98 1   
    97   89   91 ar  
    98   89   99 1   
    99   90   91 ar  
   100   90  100 1   
   101   91   92 1   
   102   92  101 1   
   103  102  103 1   
   104  102  110 1   
   105  103  104 1   
   106  103  106 1   
   107  103  111 1   
   108  104  105 2   
   109  104  121 1   
   110  106  107 1   
   111  106  108 1   
   112  106  112 1   
   113  107  109 1   
   114  107  113 1   
   115  107  114 1   
   116  108  115 1   
   117  108  116 1   
   118  108  117 1   
   119  109  118 1   
   120  109  119 1   
   121  109  120 1   
   122  121  122 1   
   123  121  127 1   
   124  122  123 1   
   125  122  125 1   
   126  122  128 1   
   127  123  124 2   
   128  123  132 1   
   129  125  126 1   
   130  125  129 1   
   131  125  130 1   
   132  126  131 1   
   133  132  133 1   
   134  132  137 1   
   135  133  134 1   
   136  133  136 1   
   137  133  138 1   
   138  134  135 2   
   139  134  142 1   
   140  136  139 1   
   141  136  140 1   
   142  136  141 1   
   143  142  143 1   
   144  142  147 1   
   145  143  144 1   
   146  143  146 1   
   147  143  148 1   
   148  144  145 2   
   149  144  152 1   
   150  146  149 1   
   151  146  150 1   
   152  146  151 1   
   153  152  153 1   
   154  152  161 1   
   155  153  154 1   
   156  153  156 1   
   157  153  162 1   
   158  154  155 2   
   159  154  167 1   
   160  156  157 1   
   161  156  163 1   
   162  156  164 1   
   163  157  158 1   
   164  157  165 1   
   165  157  166 1   
   166  158  159 1   
   167  158  160 1   
   168  167  168 1   
   169  167  172 1   
   170  168  169 1   
   171  168  170 1   
   172  168  171 1   
   173  174  175 1   
   174  174  176 1   
   175  177  178 1   
   176  177  179 1   
   177  180  181 1   
   178  180  182 1   
   179  183  184 1   
   180  183  185 1   
   181  186  187 1   
   182  186  188 1   
@<TRIPOS>SUBSTRUCTURE
     1 MOL         1 TEMP              0 ****  ****    0 ROOT
