@<TRIPOS>MOLECULE
MOL
  175   173     1     0     0
SMALL
resp


@<TRIPOS>ATOM
      1 C1         -6.7970    7.7130    1.4400 c3        1 MOL     -0.419707
      2 C2         -7.8090    6.9660    0.5640 c         1 MOL      0.721750
      3 O1         -7.9590    7.3290   -0.5910 o         1 MOL     -0.582336
      4 H1         -5.8300    7.7390    0.9360 hc        1 MOL      0.099010
      5 H2         -7.1450    8.7320    1.6100 hc        1 MOL      0.099010
      6 H3         -6.6930    7.2000    2.3960 hc        1 MOL      0.099010
      7 N1         -8.4920    5.9470    1.0720 n         1 MOL     -0.551108
      8 C3         -9.3920    5.1530    0.3120 c3        1 MOL      0.335490
      9 C4         -8.7680    3.7530   -0.0510 c         1 MOL      0.518255
     10 O2         -9.4220    2.7490   -0.2040 o         1 MOL     -0.484793
     11 C5        -10.7420    5.1510    1.0610 c3        1 MOL     -0.312834
     12 C6        -11.9080    4.6210    0.1900 c         1 MOL      0.660602
     13 O3        -12.6620    3.7500    0.6990 o         1 MOL     -0.702973
     14 O4        -12.0390    4.9180   -1.0570 o         1 MOL     -0.702973
     15 H4         -8.3240    5.5180    1.9670 hn        1 MOL      0.278123
     16 H5         -9.4990    5.6090   -0.6750 h1        1 MOL     -0.001832
     17 H6        -10.9540    6.1360    1.4570 hc        1 MOL      0.043805
     18 H7        -10.6810    4.4570    1.8920 hc        1 MOL      0.043805
     19 N2         -7.4480    3.6300   -0.1040 n         1 MOL     -0.611501
     20 C7         -6.6630    2.6460   -0.8690 c3        1 MOL      0.587558
     21 C8         -5.4830    2.1720   -0.0510 c         1 MOL      0.296702
     22 O5         -4.8820    2.8460    0.7980 o         1 MOL     -0.521208
     23 C9         -6.3010    3.1350   -2.3010 c3        1 MOL     -0.351876
     24 H8         -6.9760    4.4600    0.2430 hn        1 MOL      0.219926
     25 H9         -7.4120    1.8670   -0.9550 h1        1 MOL     -0.088890
     26 H10        -5.9790    2.2760   -2.9050 hc        1 MOL      0.091983
     27 H11        -7.2090    3.6190   -2.6530 hc        1 MOL      0.091983
     28 H12        -5.5810    3.9500   -2.3110 hc        1 MOL      0.091983
     29 N3         -4.9810    0.9690   -0.2600 n         1 MOL     -0.255214
     30 C10        -5.5190   -0.1390   -1.0610 c3        1 MOL     -0.040637
     31 C11        -5.5880   -1.4480   -0.3040 c         1 MOL      0.435643
     32 O6         -4.7140   -1.8140    0.5240 o         1 MOL     -0.518130
     33 C12        -4.6280   -0.4480   -2.2920 c3        1 MOL     -0.385183
     34 C13        -3.1080   -0.5660   -2.0090 c         1 MOL      0.787032
     35 O7         -2.4270    0.3120   -1.4550 o         1 MOL     -0.702796
     36 O8         -2.4920   -1.5980   -2.4090 o         1 MOL     -0.702796
     37 H13        -4.0540    0.8540    0.1350 hn        1 MOL      0.261403
     38 H14        -6.5000    0.1510   -1.4390 h1        1 MOL      0.131548
     39 H15        -4.8570    0.3910   -2.9370 hc        1 MOL      0.093577
     40 H16        -5.0120   -1.3640   -2.7360 hc        1 MOL      0.093577
     41 N4         -6.5820   -2.2670   -0.6420 n         1 MOL     -0.430680
     42 C14        -6.6200   -3.7080   -0.2820 c3        1 MOL      0.248823
     43 C15        -6.4680   -4.7520   -1.4300 c         1 MOL      0.472893
     44 O9         -7.5020   -5.1450   -1.9700 o         1 MOL     -0.560253
     45 H17        -7.2150   -1.8850   -1.3280 hn        1 MOL      0.294122
     46 H18        -7.6480   -3.8360    0.0690 h1        1 MOL      0.001357
     47 H19        -6.1440   -4.0790    0.6290 h1        1 MOL      0.001357
     48 N5         -5.2730   -5.1510   -1.8110 n         1 MOL     -0.511948
     49 C16        -3.9550   -4.7500   -1.2940 c3        1 MOL      0.209932
     50 C17        -3.7390   -5.3940    0.1470 c         1 MOL      0.348237
     51 O10        -3.5900   -6.6230    0.3430 o         1 MOL     -0.527076
     52 C18        -2.9410   -5.0960   -2.3230 c3        1 MOL     -0.036758
     53 C19        -1.5480   -4.5660   -1.9840 c         1 MOL      0.499259
     54 N6         -0.6460   -4.5590   -2.8690 n         1 MOL     -0.662343
     55 O11        -1.3230   -3.8790   -1.0110 o         1 MOL     -0.516381
     56 H20        -5.3860   -5.5940   -2.7140 hn        1 MOL      0.310011
     57 H21        -3.9530   -3.6710   -1.1600 h1        1 MOL      0.047987
     58 H22        -3.2240   -4.5950   -3.2460 hc        1 MOL      0.013969
     59 H23        -3.0090   -6.1750   -2.4460 hc        1 MOL      0.013969
     60 H24        -0.8190   -5.0670   -3.7260 hn        1 MOL      0.329049
     61 H25         0.2200   -4.1410   -2.5760 hn        1 MOL      0.329049
     62 N7         -3.6530   -4.5720    1.1740 n         1 MOL     -0.025855
     63 C20        -3.3650   -4.8430    2.6040 c3        1 MOL     -0.089985
     64 C21        -1.9390   -5.0450    2.9240 c         1 MOL      0.562077
     65 O12        -1.6380   -5.7710    3.8940 o         1 MOL     -0.597997
     66 H26        -3.9290   -3.6140    1.0000 hn        1 MOL      0.130321
     67 H27        -3.9790   -5.6720    2.9360 h1        1 MOL      0.059007
     68 H28        -3.6690   -3.9700    3.1800 h1        1 MOL      0.059007
     69 N8         -0.9820   -4.5330    2.1760 n         1 MOL     -0.322411
     70 C22         0.5170   -4.7180    2.2210 c3        1 MOL      0.068065
     71 C23         1.3700   -3.5180    1.8020 c         1 MOL      0.178109
     72 O13         1.0380   -2.7890    0.9070 o         1 MOL     -0.326175
     73 C24         1.0460   -5.8780    1.3770 c3        1 MOL      0.412252
     74 C25         0.6040   -7.2180    2.0320 c3        1 MOL     -0.644613
     75 O14         0.5150   -5.9100    0.0690 oh        1 MOL     -0.620710
     76 H29        -1.3750   -4.0050    1.3970 hn        1 MOL      0.165783
     77 H30         0.7930   -4.9520    3.2430 h1        1 MOL      0.046069
     78 H31         2.1270   -5.7630    1.3900 h1        1 MOL     -0.016949
     79 H32         1.0410   -5.2650   -0.4050 ho        1 MOL      0.509415
     80 H33        -0.4820   -7.3200    1.9560 hc        1 MOL      0.167493
     81 H34         1.1000   -7.9980    1.4590 hc        1 MOL      0.167493
     82 H35         0.9040   -7.1880    3.0780 hc        1 MOL      0.167493
     83 N9          2.5140   -3.3920    2.4400 n         1 MOL     -0.290837
     84 C26         3.5370   -2.3950    2.2410 c3        1 MOL      0.194614
     85 C27         4.3910   -2.7590    1.0400 c         1 MOL      0.250318
     86 O15         5.2510   -3.6460    1.1490 o         1 MOL     -0.532599
     87 C28         4.3440   -2.1560    3.5450 c3        1 MOL      0.245449
     88 C29         5.4320   -1.0730    3.3850 c3        1 MOL     -0.062812
     89 C30         3.3390   -1.9230    4.7120 c3        1 MOL     -0.436024
     90 C31         4.9320    0.3400    3.1690 c3        1 MOL     -0.209947
     91 H36         2.7000   -4.1490    3.0860 hn        1 MOL      0.242105
     92 H37         3.0780   -1.4310    1.9940 h1        1 MOL      0.019874
     93 H38         4.8660   -3.1060    3.6560 hc        1 MOL     -0.052696
     94 H39         6.0810   -1.3340    2.5530 hc        1 MOL      0.012968
     95 H40         5.9250   -1.1210    4.3600 hc        1 MOL      0.012968
     96 H41         3.8620   -1.6270    5.6250 hc        1 MOL      0.101647
     97 H42         2.6480   -1.1340    4.4200 hc        1 MOL      0.101647
     98 H43         2.7670   -2.8020    4.9940 hc        1 MOL      0.101647
     99 H44         5.7930    1.0040    3.0980 hc        1 MOL      0.058388
    100 H45         4.3040    0.3780    2.2830 hc        1 MOL      0.058388
    101 H46         4.2250    0.5750    3.9700 hc        1 MOL      0.058388
    102 N10         4.1000   -2.1380   -0.1570 n         1 MOL     -0.037550
    103 C32         4.7930   -2.3640   -1.4380 c3        1 MOL      0.344287
    104 C33         5.7630   -1.2420   -1.8160 c         1 MOL      0.437131
    105 O16         6.1760   -1.2210   -2.9270 o         1 MOL     -0.513515
    106 C34         3.7110   -2.7550   -2.5070 c3        1 MOL     -0.484786
    107 C35         2.3750   -3.4160   -2.1220 c         1 MOL      1.028895
    108 O17         2.2440   -4.4850   -1.5520 o         1 MOL     -0.847611
    109 O18         1.3610   -2.7080   -2.2440 o         1 MOL     -0.847611
    110 H47         3.3840   -1.4310   -0.1850 hn        1 MOL      0.137311
    111 H48         5.4220   -3.2280   -1.2260 h1        1 MOL     -0.004620
    112 H49         4.2510   -3.3210   -3.2640 hc        1 MOL      0.090659
    113 H50         3.4970   -1.8280   -3.0270 hc        1 MOL      0.090659
    114 N11         6.0590   -0.2380   -0.9140 n         1 MOL     -0.678429
    115 C36         6.9970    0.8570   -1.1200 c3        1 MOL      0.819354
    116 C37         6.6110    2.2420   -0.4200 c         1 MOL      0.155877
    117 O19         6.1780    2.2390    0.7780 o         1 MOL     -0.470526
    118 C38         8.3260    0.3890   -0.5420 c3        1 MOL     -0.595847
    119 C39         9.5250    1.3270   -0.7860 ca        1 MOL      0.119391
    120 C40         9.7970    2.4300    0.0510 ca        1 MOL     -0.104452
    121 C41        10.2830    1.1200   -2.0000 ca        1 MOL     -0.104452
    122 C42        10.8340    3.3050   -0.2130 ca        1 MOL     -0.171155
    123 C43        11.3430    2.0290   -2.2780 ca        1 MOL     -0.171155
    124 C44        11.5650    3.1120   -1.3940 ca        1 MOL     -0.102471
    125 H51         5.5510   -0.3250   -0.0520 hn        1 MOL      0.263155
    126 H52         7.0300    1.0780   -2.1940 h1        1 MOL     -0.092515
    127 H53         8.6600   -0.5230   -1.0450 hc        1 MOL      0.173366
    128 H54         8.2170    0.2260    0.5370 hc        1 MOL      0.173366
    129 H55         9.1860    2.5650    0.9270 ha        1 MOL      0.110881
    130 H56        10.2260    0.1980   -2.5560 ha        1 MOL      0.110881
    131 H57        10.9850    4.2070    0.3730 ha        1 MOL      0.129590
    132 H58        12.0520    1.7360   -3.0330 ha        1 MOL      0.129590
    133 H59        12.3410    3.8010   -1.6710 ha        1 MOL      0.094010
    134 N12         6.6560    3.4180   -1.1090 n         1 MOL     -0.198581
    135 C45         6.5060    4.7300   -0.4940 c3        1 MOL      0.115228
    136 C46         5.1110    5.0880    0.0580 c         1 MOL      0.386106
    137 O20         4.9200    6.1730    0.5830 o         1 MOL     -0.538074
    138 C47         6.9650    5.7360   -1.4920 c3        1 MOL     -0.044223
    139 C48         7.8800    4.9600   -2.3510 c3        1 MOL     -0.132155
    140 C49         7.1930    3.5790   -2.4410 c3        1 MOL      0.051273
    141 H60         7.2580    4.6870    0.2910 h1        1 MOL      0.089377
    142 H61         6.0870    6.1260   -2.0020 hc        1 MOL      0.048700
    143 H62         7.5340    6.5320   -0.9900 hc        1 MOL      0.048700
    144 H63         7.8860    5.3160   -3.3820 hc        1 MOL      0.049132
    145 H64         8.8480    4.8970   -1.8430 hc        1 MOL      0.049132
    146 H65         6.3620    3.6800   -3.1350 h1        1 MOL      0.047758
    147 H66         7.9230    2.7830   -2.5890 h1        1 MOL      0.047758
    148 N13         4.1550    4.1060    0.1660 n         1 MOL     -0.261313
    149 C50         2.7830    4.4530    0.6020 c3        1 MOL     -0.042130
    150 C51         2.6910    4.8020    2.0890 c         1 MOL      0.538288
    151 O21         1.7330    5.5320    2.4590 o         1 MOL     -0.564507
    152 C52         1.8340    3.2580    0.3470 c3        1 MOL     -0.245102
    153 C53         2.2620    1.8820    0.9370 c3        1 MOL      0.012160
    154 C54         1.5230    0.7480    0.3150 c         1 MOL      0.839188
    155 O22         0.4390    0.3330    0.7770 o         1 MOL     -0.804272
    156 O23         2.0210    0.1260   -0.6500 o         1 MOL     -0.804272
    157 H67         4.5260    3.1930   -0.0680 hn        1 MOL      0.191527
    158 H68         2.3670    5.3160    0.0840 h1        1 MOL      0.121440
    159 H69         1.7880    3.1320   -0.7350 hc        1 MOL      0.101741
    160 H70         0.8810    3.5660    0.7800 hc        1 MOL      0.101741
    161 H71         2.0780    1.8140    2.0050 hc        1 MOL     -0.015740
    162 H72         3.3250    1.6800    0.8120 hc        1 MOL     -0.015740
    163 N14         3.6560    4.3400    2.8720 n         1 MOL     -0.204800
    164 C55         3.8130    4.4740    4.3610 c3        1 MOL     -0.202671
    165 H73         2.8310    4.4570    4.8330 h1        1 MOL      0.095960
    166 H74         4.4120    3.6450    4.7400 h1        1 MOL      0.095960
    167 H75         4.3100    5.4170    4.5910 h1        1 MOL      0.095960
    168 H76         4.4510    4.0040    2.3540 hn        1 MOL      0.199725
    169 Ca1        -0.3120   -1.3630   -0.9590 Ca        1 MOL      1.707385
    170 O24        -2.1750   -1.6430    1.1080 oh        1 MOL     -0.882989
    171 H77        -2.0340   -0.9240    1.7390 ho        1 MOL      0.420668
    172 H78        -3.1280   -1.6870    1.0090 ho        1 MOL      0.420668
    173 O25         0.2290    0.2440   -3.0200 oh        1 MOL     -0.882989
    174 H79         1.1040    0.3290   -3.3920 ho        1 MOL      0.420668
    175 H80        -0.3610    0.6040   -3.6850 ho        1 MOL      0.420668
@<TRIPOS>BOND
     1    1    2 1   
     2    1    4 1   
     3    1    5 1   
     4    1    6 1   
     5    2    3 2   
     6    2    7 1   
     7    7    8 1   
     8    7   15 1   
     9    8    9 1   
    10    8   11 1   
    11    8   16 1   
    12    9   10 2   
    13    9   19 1   
    14   11   12 1   
    15   11   17 1   
    16   11   18 1   
    17   12   13 1   
    18   12   14 1   
    19   19   20 1   
    20   19   24 1   
    21   20   21 1   
    22   20   23 1   
    23   20   25 1   
    24   21   22 2   
    25   21   29 1   
    26   23   26 1   
    27   23   27 1   
    28   23   28 1   
    29   29   30 1   
    30   29   37 1   
    31   30   31 1   
    32   30   33 1   
    33   30   38 1   
    34   31   32 2   
    35   31   41 1   
    36   33   34 1   
    37   33   39 1   
    38   33   40 1   
    39   34   35 1   
    40   34   36 1   
    41   41   42 1   
    42   41   45 1   
    43   42   43 1   
    44   42   46 1   
    45   42   47 1   
    46   43   44 2   
    47   43   48 1   
    48   48   49 1   
    49   48   56 1   
    50   49   50 1   
    51   49   52 1   
    52   49   57 1   
    53   50   51 2   
    54   50   62 1   
    55   52   53 1   
    56   52   58 1   
    57   52   59 1   
    58   53   54 1   
    59   53   55 2   
    60   54   60 1   
    61   54   61 1   
    62   62   63 1   
    63   62   66 1   
    64   63   64 1   
    65   63   67 1   
    66   63   68 1   
    67   64   65 2   
    68   64   69 1   
    69   69   70 1   
    70   69   76 1   
    71   70   71 1   
    72   70   73 1   
    73   70   77 1   
    74   71   72 2   
    75   71   83 1   
    76   73   74 1   
    77   73   75 1   
    78   73   78 1   
    79   74   80 1   
    80   74   81 1   
    81   74   82 1   
    82   75   79 1   
    83   83   84 1   
    84   83   91 1   
    85   84   85 1   
    86   84   87 1   
    87   84   92 1   
    88   85   86 2   
    89   85  102 1   
    90   87   88 1   
    91   87   89 1   
    92   87   93 1   
    93   88   90 1   
    94   88   94 1   
    95   88   95 1   
    96   89   96 1   
    97   89   97 1   
    98   89   98 1   
    99   90   99 1   
   100   90  100 1   
   101   90  101 1   
   102  102  103 1   
   103  102  110 1   
   104  103  104 1   
   105  103  106 1   
   106  103  111 1   
   107  104  105 2   
   108  104  114 1   
   109  106  107 1   
   110  106  112 1   
   111  106  113 1   
   112  107  108 1   
   113  107  109 1   
   114  114  115 1   
   115  114  125 1   
   116  115  116 1   
   117  115  118 1   
   118  115  126 1   
   119  116  117 2   
   120  116  134 1   
   121  118  119 1   
   122  118  127 1   
   123  118  128 1   
   124  119  120 ar  
   125  119  121 ar  
   126  120  122 ar  
   127  120  129 1   
   128  121  123 ar  
   129  121  130 1   
   130  122  124 ar  
   131  122  131 1   
   132  123  124 ar  
   133  123  132 1   
   134  124  133 1   
   135  134  135 1   
   136  134  140 1   
   137  135  136 1   
   138  135  138 1   
   139  135  141 1   
   140  136  137 2   
   141  136  148 1   
   142  138  139 1   
   143  138  142 1   
   144  138  143 1   
   145  139  140 1   
   146  139  144 1   
   147  139  145 1   
   148  140  146 1   
   149  140  147 1   
   150  148  149 1   
   151  148  157 1   
   152  149  150 1   
   153  149  152 1   
   154  149  158 1   
   155  150  151 2   
   156  150  163 1   
   157  152  153 1   
   158  152  159 1   
   159  152  160 1   
   160  153  154 1   
   161  153  161 1   
   162  153  162 1   
   163  154  155 1   
   164  154  156 1   
   165  163  164 1   
   166  163  168 1   
   167  164  165 1   
   168  164  166 1   
   169  164  167 1   
   170  170  171 1   
   171  170  172 1   
   172  173  174 1   
   173  173  175 1   
@<TRIPOS>SUBSTRUCTURE
     1 MOL         1 TEMP              0 ****  ****    0 ROOT
