@<TRIPOS>MOLECULE
MOL
  179   176     1     0     0
SMALL
resp


@<TRIPOS>ATOM
      1 C1          2.1410   -4.1560    6.2210 c3        1 MOL     -0.389896
      2 C2          2.0800   -3.8640    4.6620 c         1 MOL      0.744990
      3 O1          1.1720   -4.2640    3.9370 o         1 MOL     -0.580861
      4 H1          1.1310   -4.1510    6.6310 hc        1 MOL      0.113882
      5 H2          2.5960   -5.1310    6.3920 hc        1 MOL      0.113882
      6 H3          2.7350   -3.3860    6.7130 hc        1 MOL      0.113882
      7 N1          3.0740   -3.1940    4.1490 n         1 MOL     -0.525777
      8 C3          3.1640   -2.8220    2.7290 c3        1 MOL      0.040566
      9 C4          3.6110   -3.9950    1.7260 c         1 MOL      0.465946
     10 O2          4.4550   -4.8560    2.0550 o         1 MOL     -0.564130
     11 C5          4.0270   -1.5690    2.5550 c3        1 MOL      0.177555
     12 C6          3.8240   -0.8040    1.2360 c         1 MOL      0.179680
     13 O3          3.9790    0.4090    1.1950 o         1 MOL     -0.515116
     14 O4          3.5890   -1.4380    0.1780 o         1 MOL     -0.515116
     15 H4          3.8690   -2.9220    4.7200 hn        1 MOL      0.315618
     16 H5          2.1790   -2.6310    2.2970 h1        1 MOL     -0.160381
     17 H6          5.0750   -1.8200    2.7360 hc        1 MOL      0.023243
     18 H7          3.7690   -0.9540    3.4150 hc        1 MOL      0.023243
     19 N2          3.0360   -4.0700    0.5680 n         1 MOL     -0.061526
     20 C7          3.3410   -5.1000   -0.4870 c3        1 MOL     -0.086868
     21 C8          4.5000   -4.8770   -1.4850 c         1 MOL      0.390500
     22 O5          5.1400   -5.7930   -1.9880 o         1 MOL     -0.488865
     23 C9          2.0650   -5.4550   -1.2840 c3        1 MOL     -0.101463
     24 C10         0.8480   -5.8680   -0.4510 c3        1 MOL     -0.026022
     25 C11        -0.5120   -5.6180   -1.0120 c3        1 MOL     -0.071875
     26 C12        -0.6470   -6.2730   -2.4090 c3        1 MOL      0.065440
     27 N3         -1.6190   -5.6330   -3.3510 n4        1 MOL     -0.246238
     28 H8          2.5990   -3.1980    0.3200 hn        1 MOL      0.253712
     29 H9          3.7380   -5.9810    0.0330 h1        1 MOL      0.125461
     30 H10         2.4050   -6.2620   -1.9320 hc        1 MOL      0.045028
     31 H11         1.7460   -4.5740   -1.8330 hc        1 MOL      0.045028
     32 H12         1.0350   -5.4750    0.5510 hc        1 MOL      0.041537
     33 H13         0.9970   -6.9220   -0.2070 hc        1 MOL      0.041537
     34 H14        -0.6880   -4.5490   -1.1670 hc        1 MOL      0.042631
     35 H15        -1.2360   -5.9950   -0.2890 hc        1 MOL      0.042631
     36 H16        -0.9710   -7.3100   -2.2830 hx        1 MOL      0.074538
     37 H17         0.3230   -6.3410   -2.8890 hx        1 MOL      0.074538
     38 H18        -2.5580   -5.6400   -2.9870 hn        1 MOL      0.263254
     39 H19        -1.3690   -4.7220   -3.7190 hn        1 MOL      0.263254
     40 H20        -1.7600   -6.2280   -4.1610 hn        1 MOL      0.263254
     41 N4          4.7680   -3.5410   -1.7570 n         1 MOL     -0.137674
     42 C13         5.9380   -3.0700   -2.4550 c3        1 MOL     -0.065029
     43 C14         6.8640   -2.2240   -1.5460 c         1 MOL      0.466347
     44 O6          8.0150   -1.9760   -1.8830 o         1 MOL     -0.566338
     45 C15         5.4650   -2.1830   -3.6190 c3        1 MOL     -0.110037
     46 C16         4.3930   -1.1990   -3.2050 c         1 MOL      0.777772
     47 O7          3.2110   -1.4770   -3.4850 o         1 MOL     -0.791984
     48 O8          4.7150   -0.2120   -2.4720 o         1 MOL     -0.791984
     49 H21         4.0840   -2.8720   -1.4160 hn        1 MOL      0.100854
     50 H22         6.5140   -3.9400   -2.7630 h1        1 MOL      0.121983
     51 H23         5.1160   -2.8470   -4.4020 hc        1 MOL      0.038037
     52 H24         6.2620   -1.5870   -4.0560 hc        1 MOL      0.038037
     53 N5          6.3640   -1.7680   -0.4390 n         1 MOL     -0.095835
     54 C17         7.1070   -0.9850    0.5690 c3        1 MOL     -0.272272
     55 C18         6.9910    0.5230    0.4050 c         1 MOL      0.645647
     56 O9          7.2170    1.2110    1.3950 o         1 MOL     -0.559546
     57 H25         5.3760   -1.8960   -0.2350 hn        1 MOL     -0.000882
     58 H26         8.1430   -1.2280    0.3380 h1        1 MOL      0.138064
     59 H27         6.9430   -1.4030    1.5610 h1        1 MOL      0.138064
     60 N6          6.5590    0.9680   -0.7820 n         1 MOL     -0.424180
     61 C19         6.5570    2.4200   -1.1500 c3        1 MOL     -0.061941
     62 C20         5.2340    3.2070   -0.9240 c         1 MOL      0.765685
     63 O10         4.1430    2.6910   -1.1180 o         1 MOL     -0.707560
     64 C21         6.9810    2.5360   -2.6220 c3        1 MOL     -0.143365
     65 C22         8.3250    2.1350   -2.9590 c         1 MOL      0.642919
     66 N7          8.6350    1.7590   -4.1900 n         1 MOL     -0.773039
     67 O11         9.1830    2.1900   -2.0980 o         1 MOL     -0.517584
     68 H28         6.4540    0.3170   -1.5480 hn        1 MOL      0.386154
     69 H29         7.2990    2.9570   -0.5470 h1        1 MOL      0.050633
     70 H30         6.8030    3.5630   -2.9530 hc        1 MOL      0.026995
     71 H31         6.2630    1.9080   -3.1460 hc        1 MOL      0.026995
     72 H32         7.9010    1.6110   -4.8710 hn        1 MOL      0.360553
     73 H33         9.6050    1.8150   -4.4720 hn        1 MOL      0.360553
     74 N8          5.2560    4.5690   -0.7360 n         1 MOL     -0.444190
     75 C23         4.1840    5.5690   -0.6200 c3        1 MOL     -0.092656
     76 C24         3.0660    5.2900    0.3910 c         1 MOL      0.619233
     77 O12         3.3940    5.2440    1.5980 o         1 MOL     -0.502906
     78 H34         6.1920    4.9560   -0.6710 hn        1 MOL      0.307033
     79 H35         3.6750    5.5500   -1.5840 h1        1 MOL      0.085687
     80 H36         4.5740    6.5840   -0.5920 h1        1 MOL      0.085687
     81 N9          1.8110    5.0970   -0.0870 n         1 MOL     -0.614803
     82 C25         0.7680    4.6670    0.9290 c3        1 MOL      0.095509
     83 C26         0.8320    3.1260    1.0700 c         1 MOL      0.717303
     84 O13         1.4340    2.4110    0.2690 o         1 MOL     -0.563313
     85 C27        -0.6270    5.0880    0.5090 c3        1 MOL     -0.179044
     86 C28        -0.7600    6.5630    0.1830 ca        1 MOL      0.057244
     87 C29        -0.5370    7.4520    1.2250 ca        1 MOL     -0.118349
     88 C30        -1.2760    7.0060   -1.0780 ca        1 MOL     -0.118349
     89 C31        -0.8000    8.8230    1.0220 ca        1 MOL     -0.300892
     90 C32        -1.5060    8.3900   -1.2810 ca        1 MOL     -0.300892
     91 C33        -1.2830    9.2800   -0.2400 ca        1 MOL      0.369629
     92 O14        -1.4940   10.6550   -0.3950 oh        1 MOL     -0.478162
     93 H37         1.5460    5.0480   -1.0660 hn        1 MOL      0.330905
     94 H38         1.0530    5.0990    1.8890 h1        1 MOL      0.078307
     95 H39        -1.3140    4.7960    1.3020 hc        1 MOL      0.060221
     96 H40        -0.9930    4.4660   -0.3030 hc        1 MOL      0.060221
     97 H41        -0.2910    7.0390    2.1920 ha        1 MOL      0.131759
     98 H42        -1.4780    6.3190   -1.8940 ha        1 MOL      0.131759
     99 H43        -0.6950    9.5740    1.7820 ha        1 MOL      0.174708
    100 H44        -1.7510    8.8360   -2.2300 ha        1 MOL      0.174708
    101 H45        -1.2740   11.0540    0.4490 ho        1 MOL      0.350484
    102 N10         0.2100    2.6840    2.1800 n         1 MOL     -0.718163
    103 C34         0.1280    1.3040    2.7410 c3        1 MOL      0.074979
    104 C35        -0.1150    0.1800    1.6420 c         1 MOL      0.262934
    105 O15         0.8540   -0.2390    1.0000 o         1 MOL     -0.229666
    106 C36         1.3080    1.0860    3.6840 c3        1 MOL      0.458431
    107 C37         1.1510   -0.2770    4.3720 c3        1 MOL     -0.198568
    108 C38         1.3190    2.1960    4.7230 c3        1 MOL     -0.474583
    109 C39        -0.1180   -0.5170    5.1920 c3        1 MOL      0.042827
    110 H46        -0.3960    3.3250    2.6500 hn        1 MOL      0.349123
    111 H47        -0.6860    1.2840    3.4620 h1        1 MOL      0.058013
    112 H48         2.2340    1.1730    3.1230 hc        1 MOL     -0.031057
    113 H49         2.0360   -0.4190    4.9930 hc        1 MOL      0.025831
    114 H50         1.2350   -1.0350    3.6090 hc        1 MOL      0.025831
    115 H51         0.3110    2.4660    5.0400 hc        1 MOL      0.110896
    116 H52         1.9190    1.8900    5.5730 hc        1 MOL      0.110896
    117 H53         1.8390    2.9770    4.1770 hc        1 MOL      0.110896
    118 H54        -0.9930   -0.4260    4.5460 hc        1 MOL     -0.004833
    119 H55        -0.1480   -1.3940    5.8340 hc        1 MOL     -0.004833
    120 H56        -0.2580    0.3160    5.8870 hc        1 MOL     -0.004833
    121 N11        -1.3800   -0.3530    1.6080 n         1 MOL     -0.332751
    122 C40        -1.7210   -1.6580    1.0140 c3        1 MOL     -0.159222
    123 C41        -3.2750   -1.7620    0.9250 c         1 MOL      0.511765
    124 O16        -3.7340   -2.8790    0.7030 o         1 MOL     -0.532699
    125 C42        -1.0110   -2.7660    1.7420 c3        1 MOL      0.650233
    126 O17        -0.9680   -2.6660    3.1640 oh        1 MOL     -0.652826
    127 H57        -2.1410   -0.0700    2.2130 hn        1 MOL      0.298165
    128 H58        -1.3220   -1.6430   -0.0030 h1        1 MOL      0.053463
    129 H59         0.0230   -2.8540    1.4050 h1        1 MOL     -0.082067
    130 H60        -1.4900   -3.7210    1.5120 h1        1 MOL     -0.082067
    131 H61        -0.4000   -3.4130    3.3770 ho        1 MOL      0.352175
    132 N12        -4.0700   -0.7390    1.1510 n         1 MOL     -0.447562
    133 C43        -5.2870   -0.6380    0.3910 c3        1 MOL      0.275744
    134 C44        -5.0980   -0.5160   -1.1050 c         1 MOL      0.514557
    135 O18        -4.0270   -0.1100   -1.6110 o         1 MOL     -0.593794
    136 C45        -6.3430    0.2810    0.9720 c3        1 MOL     -0.231037
    137 H62        -3.5700    0.1310    1.2950 hn        1 MOL      0.213680
    138 H63        -5.6360   -1.6710    0.3750 h1        1 MOL      0.049498
    139 H64        -6.9800   -0.2740    1.6720 hc        1 MOL      0.076907
    140 H65        -5.8660    1.0480    1.5810 hc        1 MOL      0.076907
    141 H66        -6.8580    0.7350    0.1290 hc        1 MOL      0.076907
    142 N13        -6.1090   -0.7450   -1.9830 n         1 MOL     -0.572591
    143 C46        -7.4240   -1.3350   -1.7140 c3        1 MOL      0.524414
    144 C47        -8.6000   -0.6130   -2.2590 c         1 MOL      0.292588
    145 O19        -8.5440    0.1070   -3.2860 o         1 MOL     -0.528331
    146 C48        -7.4360   -2.8120   -2.1300 c3        1 MOL     -0.456468
    147 H67        -5.7610   -0.7430   -2.9350 hn        1 MOL      0.304561
    148 H68        -7.6230   -1.2510   -0.6430 h1        1 MOL     -0.087609
    149 H69        -8.2970   -3.2520   -1.6250 hc        1 MOL      0.117305
    150 H70        -7.6570   -2.8890   -3.1940 hc        1 MOL      0.117305
    151 H71        -6.5110   -3.2970   -1.8080 hc        1 MOL      0.117305
    152 N14        -9.8080   -0.7000   -1.7080 n         1 MOL     -0.217211
    153 C49       -10.2370   -1.2910   -0.4390 c3        1 MOL     -0.110660
    154 C50        -9.9960   -0.3120    0.7270 c         1 MOL      0.418461
    155 O20        -9.5660   -0.7040    1.8240 o         1 MOL     -0.546401
    156 C51       -11.6790   -1.8460   -0.3550 c3        1 MOL      0.112776
    157 C52       -12.9440   -0.9540   -0.3380 c3        1 MOL     -0.252389
    158 C53       -13.1180   -0.0840   -1.5290 c         1 MOL      0.650990
    159 O21       -12.3450    0.8960   -1.7520 o         1 MOL     -0.637219
    160 O22       -14.2220   -0.1230   -2.2130 o         1 MOL     -0.637219
    161 H72       -10.5720   -0.2180   -2.1530 hn        1 MOL      0.225273
    162 H73        -9.6340   -2.1650   -0.2010 h1        1 MOL      0.063985
    163 H74       -11.7740   -2.5300    0.4890 hc        1 MOL     -0.002789
    164 H75       -11.7860   -2.5160   -1.2190 hc        1 MOL     -0.002789
    165 H76       -12.8430   -0.3180    0.5390 hc        1 MOL      0.071744
    166 H77       -13.8860   -1.4710   -0.1240 hc        1 MOL      0.071744
    167 N15       -10.2550    0.9760    0.5540 n         1 MOL     -0.156808
    168 C54        -9.8090    2.0350    1.4370 c3        1 MOL     -0.139773
    169 H78       -10.6580    2.4150    2.0050 h1        1 MOL      0.070422
    170 H79        -9.0590    1.6430    2.1250 h1        1 MOL      0.070422
    171 H80        -9.3760    2.8430    0.8470 h1        1 MOL      0.070422
    172 H81       -10.7530    1.2810   -0.2770 hn        1 MOL      0.203997
    173 Ca1         2.4940    0.6130   -1.1240 Ca        1 MOL      1.771904
    174 O23         0.9600   -1.9780   -1.8680 oh        1 MOL     -0.994613
    175 H82         1.3670   -2.1940   -2.7170 ho        1 MOL      0.467047
    176 H83         0.0560   -1.7710   -2.0870 ho        1 MOL      0.467047
    177 O24        -0.0710    0.9660   -1.8750 oh        1 MOL     -0.994613
    178 H84        -0.6850    0.3880   -2.3160 ho        1 MOL      0.467047
    179 H85        -0.4250    1.8500   -2.0250 ho        1 MOL      0.467047
@<TRIPOS>BOND
     1    1    2 1   
     2    1    4 1   
     3    1    5 1   
     4    1    6 1   
     5    2    3 2   
     6    2    7 1   
     7    7    8 1   
     8    7   15 1   
     9    8    9 1   
    10    8   11 1   
    11    8   16 1   
    12    9   10 2   
    13    9   19 1   
    14   11   12 1   
    15   11   17 1   
    16   11   18 1   
    17   12   13 1   
    18   12   14 1   
    19   19   20 1   
    20   19   28 1   
    21   20   21 1   
    22   20   23 1   
    23   20   29 1   
    24   21   22 2   
    25   21   41 1   
    26   23   24 1   
    27   23   30 1   
    28   23   31 1   
    29   24   25 1   
    30   24   32 1   
    31   24   33 1   
    32   25   26 1   
    33   25   34 1   
    34   25   35 1   
    35   26   27 1   
    36   26   36 1   
    37   26   37 1   
    38   27   38 1   
    39   27   39 1   
    40   27   40 1   
    41   41   42 1   
    42   41   49 1   
    43   42   43 1   
    44   42   45 1   
    45   42   50 1   
    46   43   44 2   
    47   43   53 1   
    48   45   46 1   
    49   45   51 1   
    50   45   52 1   
    51   46   47 1   
    52   46   48 1   
    53   53   54 1   
    54   53   57 1   
    55   54   55 1   
    56   54   58 1   
    57   54   59 1   
    58   55   56 2   
    59   55   60 1   
    60   60   61 1   
    61   60   68 1   
    62   61   62 1   
    63   61   64 1   
    64   61   69 1   
    65   62   63 2   
    66   62   74 1   
    67   64   65 1   
    68   64   70 1   
    69   64   71 1   
    70   65   66 1   
    71   65   67 2   
    72   66   72 1   
    73   66   73 1   
    74   74   75 1   
    75   74   78 1   
    76   75   76 1   
    77   75   79 1   
    78   75   80 1   
    79   76   77 2   
    80   76   81 1   
    81   81   82 1   
    82   81   93 1   
    83   82   83 1   
    84   82   85 1   
    85   82   94 1   
    86   83   84 2   
    87   83  102 1   
    88   85   86 1   
    89   85   95 1   
    90   85   96 1   
    91   86   87 ar  
    92   86   88 ar  
    93   87   89 ar  
    94   87   97 1   
    95   88   90 ar  
    96   88   98 1   
    97   89   91 ar  
    98   89   99 1   
    99   90   91 ar  
   100   90  100 1   
   101   91   92 1   
   102   92  101 1   
   103  102  103 1   
   104  102  110 1   
   105  103  104 1   
   106  103  106 1   
   107  103  111 1   
   108  104  105 2   
   109  104  121 1   
   110  106  107 1   
   111  106  108 1   
   112  106  112 1   
   113  107  109 1   
   114  107  113 1   
   115  107  114 1   
   116  108  115 1   
   117  108  116 1   
   118  108  117 1   
   119  109  118 1   
   120  109  119 1   
   121  109  120 1   
   122  121  122 1   
   123  121  127 1   
   124  122  123 1   
   125  122  125 1   
   126  122  128 1   
   127  123  124 2   
   128  123  132 1   
   129  125  126 1   
   130  125  129 1   
   131  125  130 1   
   132  126  131 1   
   133  132  133 1   
   134  132  137 1   
   135  133  134 1   
   136  133  136 1   
   137  133  138 1   
   138  134  135 2   
   139  134  142 1   
   140  136  139 1   
   141  136  140 1   
   142  136  141 1   
   143  142  143 1   
   144  142  147 1   
   145  143  144 1   
   146  143  146 1   
   147  143  148 1   
   148  144  145 2   
   149  144  152 1   
   150  146  149 1   
   151  146  150 1   
   152  146  151 1   
   153  152  153 1   
   154  152  161 1   
   155  153  154 1   
   156  153  156 1   
   157  153  162 1   
   158  154  155 2   
   159  154  167 1   
   160  156  157 1   
   161  156  163 1   
   162  156  164 1   
   163  157  158 1   
   164  157  165 1   
   165  157  166 1   
   166  158  159 1   
   167  158  160 1   
   168  167  168 1   
   169  167  172 1   
   170  168  169 1   
   171  168  170 1   
   172  168  171 1   
   173  174  175 1   
   174  174  176 1   
   175  177  178 1   
   176  177  179 1   
@<TRIPOS>SUBSTRUCTURE
     1 MOL         1 TEMP              0 ****  ****    0 ROOT
