@<TRIPOS>MOLECULE
MOL
  184   179     1     0     0
SMALL
resp


@<TRIPOS>ATOM
      1 C1          1.8940   -2.4780    4.0360 c3        1 MOL     -0.278416
      2 C2          2.7530   -1.5750    3.0630 c         1 MOL      0.497251
      3 O1          2.2200   -1.1530    2.0460 o         1 MOL     -0.462602
      4 H1          1.2810   -1.8420    4.6730 hc        1 MOL      0.064924
      5 H2          1.2500   -3.1340    3.4500 hc        1 MOL      0.064924
      6 H3          2.5590   -3.0800    4.6550 hc        1 MOL      0.064924
      7 N1          4.0710   -1.3610    3.3020 n         1 MOL     -0.400573
      8 C3          5.0040   -0.4960    2.6520 c3        1 MOL      0.020486
      9 C4          5.8750   -1.1530    1.5490 c         1 MOL      0.486622
     10 O2          6.4940   -0.4380    0.7650 o         1 MOL     -0.440136
     11 C5          5.8520    0.2830    3.7100 c3        1 MOL     -0.069871
     12 C6          6.7880    1.3610    3.1120 c         1 MOL      0.746047
     13 O3          7.9180    1.4840    3.5720 o         1 MOL     -0.719473
     14 O4          6.2560    2.2290    2.3700 o         1 MOL     -0.719473
     15 H4          4.4690   -1.6990    4.1700 hn        1 MOL      0.247365
     16 H5          4.3130    0.2040    2.1800 h1        1 MOL      0.063559
     17 H6          6.4320   -0.4510    4.2770 hc        1 MOL     -0.031846
     18 H7          5.1760    0.7870    4.3970 hc        1 MOL     -0.031846
     19 N2          5.9490   -2.5040    1.4960 n         1 MOL     -0.386397
     20 C7          6.6040   -3.2680    0.4530 c3        1 MOL      0.211893
     21 C8          6.2180   -2.8800   -0.9810 c         1 MOL      0.374280
     22 O5          7.0930   -2.6690   -1.8370 o         1 MOL     -0.514549
     23 C9          8.1190   -3.3530    0.7590 c3        1 MOL     -0.388451
     24 H8          5.3580   -2.9860    2.1500 hn        1 MOL      0.187385
     25 H9          6.2500   -4.3010    0.4790 h1        1 MOL      0.051282
     26 H10         8.6460   -3.9560    0.0140 hc        1 MOL      0.101465
     27 H11         8.5380   -2.3540    0.8210 hc        1 MOL      0.101465
     28 H12         8.3060   -3.9520    1.6460 hc        1 MOL      0.101465
     29 N3          4.9320   -2.7140   -1.2590 n         1 MOL     -0.215922
     30 C10         4.2840   -2.2590   -2.4930 c3        1 MOL      0.022060
     31 C11         4.9070   -1.0020   -3.0990 c         1 MOL      0.492686
     32 O6          5.1490   -0.9080   -4.3090 o         1 MOL     -0.535834
     33 C12         4.0410   -3.5080   -3.3840 c3        1 MOL     -0.312622
     34 C13         3.4910   -4.6600   -2.4650 c         1 MOL      0.763660
     35 O7          2.2640   -4.8770   -2.3490 o         1 MOL     -0.713743
     36 O8          4.2950   -5.5640   -2.1890 o         1 MOL     -0.713743
     37 H13         4.2520   -2.8030   -0.5080 hn        1 MOL      0.168707
     38 H14         3.3000   -1.8480   -2.2570 h1        1 MOL      0.042589
     39 H15         4.8860   -3.9500   -3.9080 hc        1 MOL      0.089622
     40 H16         3.2090   -3.2310   -4.0470 hc        1 MOL      0.089622
     41 N4          5.3140   -0.0470   -2.2310 n         1 MOL     -0.028367
     42 C14         5.9290    1.2350   -2.6050 c3        1 MOL     -0.310733
     43 C15         4.9660    2.3140   -3.1910 c         1 MOL      0.566974
     44 O9          5.2910    3.1920   -4.0170 o         1 MOL     -0.575129
     45 H17         5.2540   -0.2830   -1.2480 hn        1 MOL      0.100202
     46 H18         6.7410    1.0380   -3.3180 h1        1 MOL      0.138662
     47 H19         6.3870    1.5580   -1.6750 h1        1 MOL      0.138662
     48 N5          3.6940    2.1530   -2.8860 n         1 MOL     -0.117840
     49 C16         2.6100    3.0730   -3.1440 c3        1 MOL     -0.134990
     50 C17         2.7640    4.2910   -2.2140 c         1 MOL      0.481266
     51 O10         3.4410    4.1980   -1.1490 o         1 MOL     -0.519829
     52 C18         1.2340    2.3830   -3.1130 c3        1 MOL     -0.297995
     53 C19         1.2750    1.1170   -3.9550 c         1 MOL      0.622905
     54 N6          0.8580    0.0110   -3.3450 n         1 MOL     -0.826072
     55 O11         1.7510    1.1360   -5.0560 o         1 MOL     -0.537923
     56 H20         3.5900    1.3370   -2.3060 hn        1 MOL      0.107455
     57 H21         2.7090    3.4440   -4.1640 h1        1 MOL      0.082581
     58 H22         0.4130    3.0590   -3.3440 hc        1 MOL      0.132466
     59 H23         0.9680    2.2120   -2.0710 hc        1 MOL      0.132466
     60 H24         0.5920    0.0200   -2.3760 hn        1 MOL      0.401033
     61 H25         0.9240   -0.8520   -3.8720 hn        1 MOL      0.401033
     62 N7          2.2360    5.4210   -2.5970 n         1 MOL     -0.261994
     63 C20         2.4210    6.7150   -1.9910 c3        1 MOL     -0.248378
     64 C21         1.0370    7.0590   -1.3590 c         1 MOL      0.555241
     65 O12         0.0610    6.9200   -2.0410 o         1 MOL     -0.495301
     66 H26         1.6270    5.4350   -3.3990 hn        1 MOL      0.267789
     67 H27         2.3930    7.4300   -2.8090 h1        1 MOL      0.120945
     68 H28         3.3330    6.8930   -1.4200 h1        1 MOL      0.120945
     69 N8          1.1060    7.2870   -0.0230 n         1 MOL     -0.453987
     70 C22        -0.1430    7.5820    0.7160 c3        1 MOL     -0.026421
     71 C23        -0.8270    6.3130    1.2470 c         1 MOL      0.387212
     72 O13        -2.0760    6.3970    1.4510 o         1 MOL     -0.563125
     73 C24         0.0170    8.7560    1.7130 c3        1 MOL      0.309957
     74 C25         0.9020    8.4160    2.8920 c3        1 MOL     -0.213334
     75 O14         0.5430    9.9240    1.0110 oh        1 MOL     -0.631861
     76 H29         1.9860    7.4120    0.4590 hn        1 MOL      0.300946
     77 H30        -0.8680    7.9740    0.0040 h1        1 MOL      0.139208
     78 H31        -0.9190    9.1040    2.1450 h1        1 MOL      0.012114
     79 H32         0.9980   10.5080    1.6290 ho        1 MOL      0.384836
     80 H33         0.6060    7.4800    3.3690 hc        1 MOL      0.054694
     81 H34         1.9180    8.3760    2.4990 hc        1 MOL      0.054694
     82 H35         0.8820    9.1510    3.6860 hc        1 MOL      0.054694
     83 N9         -0.1420    5.1870    1.4380 n         1 MOL     -0.110975
     84 C26        -0.7110    3.9350    2.0420 c3        1 MOL     -0.054250
     85 C27        -0.9480    2.8870    0.9000 c         1 MOL      0.615237
     86 O15        -0.6440    3.1420   -0.2890 o         1 MOL     -0.562985
     87 C28         0.1390    3.3450    3.1550 c3        1 MOL     -0.015579
     88 C29         1.5990    2.9560    2.7060 c3        1 MOL     -0.157140
     89 C30         0.1730    4.4920    4.2070 c3        1 MOL     -0.106635
     90 C31         2.5420    2.5160    3.8990 c3        1 MOL     -0.063495
     91 H36         0.8470    5.1760    1.2130 hn        1 MOL      0.173560
     92 H37        -1.7360    4.1340    2.3640 h1        1 MOL      0.082995
     93 H38        -0.3980    2.5080    3.6030 hc        1 MOL      0.052308
     94 H39         2.0070    3.8080    2.1610 hc        1 MOL      0.107886
     95 H40         1.6730    2.1420    1.9960 hc        1 MOL      0.107886
     96 H41         0.7970    5.3730    4.0250 hc        1 MOL      0.019973
     97 H42        -0.8230    4.8430    4.4620 hc        1 MOL      0.019973
     98 H43         0.5650    4.0410    5.1200 hc        1 MOL      0.019973
     99 H44         2.7290    3.3310    4.6020 hc        1 MOL      0.038285
    100 H45         2.2460    1.6020    4.4150 hc        1 MOL      0.038285
    101 H46         3.4980    2.3550    3.3990 hc        1 MOL      0.038285
    102 N10        -1.5410    1.7290    1.1450 n         1 MOL     -0.779059
    103 C32        -1.5810    0.5760    0.1690 c3        1 MOL      0.579607
    104 C33        -3.0280    0.1990   -0.1170 c         1 MOL      0.274056
    105 O16        -3.4320   -0.9400    0.0890 o         1 MOL     -0.280139
    106 C34        -0.7300   -0.5630    0.7570 c3        1 MOL     -0.320824
    107 C35        -0.5080   -1.8300   -0.1230 c         1 MOL      0.692294
    108 O17        -0.0270   -2.8880    0.3560 o         1 MOL     -0.700493
    109 O18        -0.8420   -1.7950   -1.3260 o         1 MOL     -0.700493
    110 H47        -2.0940    1.6680    1.9950 hn        1 MOL      0.359752
    111 H48        -1.1430    0.8880   -0.7820 h1        1 MOL     -0.072203
    112 H49        -1.2570   -0.8660    1.6610 hc        1 MOL      0.070904
    113 H50         0.2640   -0.2240    1.0390 hc        1 MOL      0.070904
    114 N11        -3.8150    1.1780   -0.6990 n         1 MOL     -0.522858
    115 C36        -5.1900    1.0710   -1.0940 c3        1 MOL      0.445311
    116 C37        -6.0580    0.2050   -0.1220 c         1 MOL      0.154105
    117 O19        -6.1780    0.5840    1.0630 o         1 MOL     -0.438899
    118 C38        -5.8650    2.3840   -1.4650 c3        1 MOL     -0.400026
    119 C39        -7.2520    2.2490   -2.1440 ca        1 MOL      0.147442
    120 C40        -7.2990    2.2180   -3.5370 ca        1 MOL     -0.155453
    121 C41        -8.4410    2.0730   -1.3640 ca        1 MOL     -0.155453
    122 C42        -8.5160    2.0110   -4.1770 ca        1 MOL     -0.127237
    123 C43        -9.6320    1.7710   -2.0050 ca        1 MOL     -0.127237
    124 C44        -9.7020    1.7220   -3.4150 ca        1 MOL     -0.126316
    125 H51        -3.3340    2.0240   -0.9400 hn        1 MOL      0.317574
    126 H52        -5.1020    0.5780   -2.0680 h1        1 MOL     -0.039328
    127 H53        -5.2300    2.9170   -2.1800 hc        1 MOL      0.125986
    128 H54        -5.9870    2.9290   -0.5270 hc        1 MOL      0.125986
    129 H55        -6.5280    2.5580   -4.2110 ha        1 MOL      0.127440
    130 H56        -8.3070    2.0000   -0.2860 ha        1 MOL      0.127440
    131 H57        -8.6610    2.0510   -5.2420 ha        1 MOL      0.113000
    132 H58       -10.5070    1.4540   -1.4550 ha        1 MOL      0.113000
    133 H59       -10.5920    1.3730   -3.9060 ha        1 MOL      0.108271
    134 N12        -6.6310   -0.8780   -0.6640 n         1 MOL      0.063071
    135 C45        -7.5460   -1.8030    0.0830 c3        1 MOL     -0.073311
    136 C46        -6.8600   -2.5970    1.1870 c         1 MOL      0.415597
    137 O20        -7.5420   -3.2820    1.9950 o         1 MOL     -0.563764
    138 C47        -8.1550   -2.7750   -0.9480 c3        1 MOL     -0.009012
    139 C48        -7.0480   -2.9070   -1.9440 c3        1 MOL     -0.035125
    140 C49        -6.4040   -1.4760   -2.0110 c3        1 MOL     -0.139906
    141 H60        -8.3760   -1.2680    0.5370 h1        1 MOL      0.088316
    142 H61        -8.4830   -3.7170   -0.5050 hc        1 MOL      0.023741
    143 H62        -8.9860   -2.3070   -1.4890 hc        1 MOL      0.023741
    144 H63        -6.3660   -3.6460   -1.5220 hc        1 MOL      0.041627
    145 H64        -7.2960   -3.1650   -2.9710 hc        1 MOL      0.041627
    146 H65        -5.3360   -1.6290   -2.1720 h1        1 MOL      0.079244
    147 H66        -6.8910   -0.7850   -2.6960 h1        1 MOL      0.079244
    148 N13        -5.5640   -2.4690    1.3930 n         1 MOL     -0.150856
    149 C50        -4.8490   -3.0120    2.5960 c3        1 MOL     -0.136437
    150 C51        -4.6710   -1.8750    3.6300 c         1 MOL      0.422968
    151 O21        -4.3700   -2.2070    4.7870 o         1 MOL     -0.537233
    152 C52        -3.5470   -3.5860    2.0610 c3        1 MOL      0.243583
    153 C53        -3.7300   -4.9820    1.3790 c3        1 MOL     -0.500503
    154 C54        -2.4110   -5.6890    0.9680 c         1 MOL      0.884662
    155 O22        -1.9390   -5.3800   -0.1660 o         1 MOL     -0.743651
    156 O23        -1.9350   -6.4850    1.7720 o         1 MOL     -0.743651
    157 H67        -4.9770   -2.0710    0.6790 hn        1 MOL      0.158439
    158 H68        -5.3600   -3.8960    2.9990 h1        1 MOL      0.142337
    159 H69        -2.9200   -3.7810    2.9320 hc        1 MOL     -0.031987
    160 H70        -3.0050   -2.9150    1.4000 hc        1 MOL     -0.031987
    161 H71        -4.3470   -4.7120    0.5170 hc        1 MOL      0.100593
    162 H72        -4.2690   -5.5960    2.1060 hc        1 MOL      0.100593
    163 N14        -5.0360   -0.5930    3.3210 n         1 MOL     -0.173055
    164 C55        -4.9270    0.5940    4.1960 c3        1 MOL     -0.085217
    165 H73        -4.9290    0.2770    5.2390 h1        1 MOL      0.059983
    166 H74        -3.9990    1.1230    3.9790 h1        1 MOL      0.059983
    167 H75        -5.7750    1.2560    4.0160 h1        1 MOL      0.059983
    168 H76        -5.2520   -0.4140    2.3510 hn        1 MOL      0.103733
    169 Ca1         0.7250   -5.2900   -0.3920 Ca        1 MOL      1.724465
    170 O24        -0.0340   -7.7830   -1.1540 oh        1 MOL     -0.854358
    171 H77        -0.1220   -8.5540   -0.5990 ho        1 MOL      0.411483
    172 H78         0.3460   -8.1200   -1.9720 ho        1 MOL      0.411483
    173 O25         2.7630   -6.6800    0.6410 oh        1 MOL     -0.854358
    174 H79         2.6990   -6.9290    1.5600 ho        1 MOL      0.411483
    175 H80         3.4750   -7.2310    0.2970 ho        1 MOL      0.411483
    176 O26         0.4710   -5.4930    2.3950 oh        1 MOL     -0.854358
    177 H81         0.7460   -5.8110    3.2650 ho        1 MOL      0.411483
    178 H82        -0.4700   -5.6970    2.3570 ho        1 MOL      0.411483
    179 O27         2.6440   -3.6430    0.6620 oh        1 MOL     -0.854358
    180 H83         2.2130   -2.8290    0.9040 ho        1 MOL      0.411483
    181 H84         3.0690   -3.9280    1.4740 ho        1 MOL      0.411483
    182 O28        -0.6050   -5.2630   -2.8180 oh        1 MOL     -0.854358
    183 H85        -1.1760   -5.9070   -3.2270 ho        1 MOL      0.411483
    184 H86        -0.8430   -4.4360   -3.2390 ho        1 MOL      0.411483
@<TRIPOS>BOND
     1    1    2 1   
     2    1    4 1   
     3    1    5 1   
     4    1    6 1   
     5    2    3 2   
     6    2    7 1   
     7    7    8 1   
     8    7   15 1   
     9    8    9 1   
    10    8   11 1   
    11    8   16 1   
    12    9   10 2   
    13    9   19 1   
    14   11   12 1   
    15   11   17 1   
    16   11   18 1   
    17   12   13 1   
    18   12   14 1   
    19   19   20 1   
    20   19   24 1   
    21   20   21 1   
    22   20   23 1   
    23   20   25 1   
    24   21   22 2   
    25   21   29 1   
    26   23   26 1   
    27   23   27 1   
    28   23   28 1   
    29   29   30 1   
    30   29   37 1   
    31   30   31 1   
    32   30   33 1   
    33   30   38 1   
    34   31   32 2   
    35   31   41 1   
    36   33   34 1   
    37   33   39 1   
    38   33   40 1   
    39   34   35 1   
    40   34   36 1   
    41   41   42 1   
    42   41   45 1   
    43   42   43 1   
    44   42   46 1   
    45   42   47 1   
    46   43   44 2   
    47   43   48 1   
    48   48   49 1   
    49   48   56 1   
    50   49   50 1   
    51   49   52 1   
    52   49   57 1   
    53   50   51 2   
    54   50   62 1   
    55   52   53 1   
    56   52   58 1   
    57   52   59 1   
    58   53   54 1   
    59   53   55 2   
    60   54   60 1   
    61   54   61 1   
    62   62   63 1   
    63   62   66 1   
    64   63   64 1   
    65   63   67 1   
    66   63   68 1   
    67   64   65 2   
    68   64   69 1   
    69   69   70 1   
    70   69   76 1   
    71   70   71 1   
    72   70   73 1   
    73   70   77 1   
    74   71   72 2   
    75   71   83 1   
    76   73   74 1   
    77   73   75 1   
    78   73   78 1   
    79   74   80 1   
    80   74   81 1   
    81   74   82 1   
    82   75   79 1   
    83   83   84 1   
    84   83   91 1   
    85   84   85 1   
    86   84   87 1   
    87   84   92 1   
    88   85   86 2   
    89   85  102 1   
    90   87   88 1   
    91   87   89 1   
    92   87   93 1   
    93   88   90 1   
    94   88   94 1   
    95   88   95 1   
    96   89   96 1   
    97   89   97 1   
    98   89   98 1   
    99   90   99 1   
   100   90  100 1   
   101   90  101 1   
   102  102  103 1   
   103  102  110 1   
   104  103  104 1   
   105  103  106 1   
   106  103  111 1   
   107  104  105 2   
   108  104  114 1   
   109  106  107 1   
   110  106  112 1   
   111  106  113 1   
   112  107  108 1   
   113  107  109 1   
   114  114  115 1   
   115  114  125 1   
   116  115  116 1   
   117  115  118 1   
   118  115  126 1   
   119  116  117 2   
   120  116  134 1   
   121  118  119 1   
   122  118  127 1   
   123  118  128 1   
   124  119  120 ar  
   125  119  121 ar  
   126  120  122 ar  
   127  120  129 1   
   128  121  123 ar  
   129  121  130 1   
   130  122  124 ar  
   131  122  131 1   
   132  123  124 ar  
   133  123  132 1   
   134  124  133 1   
   135  134  135 1   
   136  134  140 1   
   137  135  136 1   
   138  135  138 1   
   139  135  141 1   
   140  136  137 2   
   141  136  148 1   
   142  138  139 1   
   143  138  142 1   
   144  138  143 1   
   145  139  140 1   
   146  139  144 1   
   147  139  145 1   
   148  140  146 1   
   149  140  147 1   
   150  148  149 1   
   151  148  157 1   
   152  149  150 1   
   153  149  152 1   
   154  149  158 1   
   155  150  151 2   
   156  150  163 1   
   157  152  153 1   
   158  152  159 1   
   159  152  160 1   
   160  153  154 1   
   161  153  161 1   
   162  153  162 1   
   163  154  155 1   
   164  154  156 1   
   165  163  164 1   
   166  163  168 1   
   167  164  165 1   
   168  164  166 1   
   169  164  167 1   
   170  170  171 1   
   171  170  172 1   
   172  173  174 1   
   173  173  175 1   
   174  176  177 1   
   175  176  178 1   
   176  179  180 1   
   177  179  181 1   
   178  182  183 1   
   179  182  184 1   
@<TRIPOS>SUBSTRUCTURE
     1 MOL         1 TEMP              0 ****  ****    0 ROOT
