@<TRIPOS>MOLECULE
MOL
  178   175     1     0     0
SMALL
resp


@<TRIPOS>ATOM
      1 C1         -6.4520    7.8310    1.9410 c3        1 MOL     -0.482059
      2 C2         -7.2250    7.0200    0.9360 c         1 MOL      0.789421
      3 O1         -7.4530    7.5050   -0.1230 o         1 MOL     -0.606831
      4 H1         -5.3860    7.6480    1.8110 hc        1 MOL      0.111026
      5 H2         -6.6590    8.8900    1.7900 hc        1 MOL      0.111026
      6 H3         -6.7490    7.5420    2.9490 hc        1 MOL      0.111026
      7 N1         -7.8930    5.9480    1.2910 n         1 MOL     -0.569740
      8 C3         -8.8460    5.1870    0.4740 c3        1 MOL      0.466978
      9 C4         -8.3660    3.7860   -0.0270 c         1 MOL      0.371548
     10 O2         -9.2110    2.9140   -0.3800 o         1 MOL     -0.483945
     11 C5        -10.1550    5.0040    1.2310 c3        1 MOL     -0.317396
     12 C6        -11.4380    4.6210    0.4080 c         1 MOL      0.784241
     13 O3        -11.6730    5.2500   -0.6370 o         1 MOL     -0.741088
     14 O4        -12.2310    3.8090    0.8370 o         1 MOL     -0.741088
     15 H4         -7.9660    5.7980    2.2920 hn        1 MOL      0.243809
     16 H5         -9.1180    5.8000   -0.3840 h1        1 MOL     -0.024379
     17 H6        -10.4400    5.9460    1.6870 hc        1 MOL      0.016729
     18 H7         -9.9790    4.3110    2.0520 hc        1 MOL      0.016729
     19 N2         -7.0660    3.6360   -0.2220 n         1 MOL     -0.579547
     20 C7         -6.4460    2.6280   -1.1120 c3        1 MOL      0.749822
     21 C8         -5.0760    2.0860   -0.5960 c         1 MOL      0.094787
     22 O5         -4.2240    2.8830   -0.1810 o         1 MOL     -0.488019
     23 C9         -6.3980    3.1170   -2.5720 c3        1 MOL     -0.381412
     24 H8         -6.4490    4.3950    0.0270 hn        1 MOL      0.203591
     25 H9         -7.1240    1.7770   -1.1570 h1        1 MOL     -0.127648
     26 H10        -5.7790    4.0100   -2.5740 hc        1 MOL      0.091161
     27 H11        -6.0030    2.3260   -3.2070 hc        1 MOL      0.091161
     28 H12        -7.3660    3.4750   -2.9410 hc        1 MOL      0.091161
     29 N3         -4.6840    0.8740   -0.9140 n         1 MOL     -0.019177
     30 C10        -5.4130   -0.3060   -1.5370 c3        1 MOL     -0.241384
     31 C11        -5.5010   -1.5610   -0.6860 c         1 MOL      0.424678
     32 O6         -4.7080   -1.7500    0.2940 o         1 MOL     -0.488653
     33 C12        -4.7480   -0.5940   -2.8770 c3        1 MOL     -0.102519
     34 C13        -3.2000   -0.4630   -2.8520 c         1 MOL      0.535545
     35 O7         -2.6390   -1.1360   -1.9430 o         1 MOL     -0.610415
     36 O8         -2.5850    0.2990   -3.6770 o         1 MOL     -0.610415
     37 H13        -3.7700    0.5700   -0.6200 hn        1 MOL      0.262898
     38 H14        -6.4610   -0.0500   -1.6740 h1        1 MOL      0.123277
     39 H15        -5.0290    0.1720   -3.6090 hc        1 MOL      0.039878
     40 H16        -5.1960   -1.5220   -3.2320 hc        1 MOL      0.039878
     41 N4         -6.5790   -2.3470   -0.9440 n         1 MOL     -0.327794
     42 C14        -6.7800   -3.7190   -0.4780 c3        1 MOL      0.068721
     43 C15        -6.5490   -4.8320   -1.4890 c         1 MOL      0.564769
     44 O9         -7.5110   -5.3620   -2.0170 o         1 MOL     -0.543139
     45 H17        -7.1620   -2.1460   -1.7500 hn        1 MOL      0.295317
     46 H18        -7.8580   -3.8010   -0.3120 h1        1 MOL      0.016592
     47 H19        -6.1550   -3.8920    0.3860 h1        1 MOL      0.016592
     48 N5         -5.2950   -5.2420   -1.8290 n         1 MOL     -0.627664
     49 C16        -4.0130   -4.7850   -1.2210 c3        1 MOL      0.271138
     50 C17        -3.8270   -5.4580    0.1990 c         1 MOL      0.484275
     51 O10        -3.7720   -6.6560    0.3480 o         1 MOL     -0.531120
     52 C18        -2.9580   -5.0990   -2.2680 c3        1 MOL     -0.149845
     53 C19        -1.6000   -4.4640   -1.8870 c         1 MOL      0.587051
     54 N6         -0.6190   -4.7440   -2.6490 n         1 MOL     -0.640038
     55 O11        -1.5490   -3.7530   -0.9210 o         1 MOL     -0.734889
     56 H20        -5.1900   -5.9740   -2.5170 hn        1 MOL      0.324946
     57 H21        -4.0140   -3.6970   -1.1540 h1        1 MOL      0.053268
     58 H22        -3.2060   -4.7250   -3.2550 hc        1 MOL      0.042100
     59 H23        -2.8560   -6.1890   -2.2860 hc        1 MOL      0.042100
     60 H24        -0.8240   -5.1170   -3.5680 hn        1 MOL      0.334420
     61 H25         0.2950   -4.3660   -2.4700 hn        1 MOL      0.334420
     62 N7         -3.6680   -4.5810    1.2390 n         1 MOL     -0.092273
     63 C20        -3.4250   -4.8840    2.6370 c3        1 MOL     -0.364222
     64 C21        -1.9010   -5.2200    2.9300 c         1 MOL      0.673592
     65 O12        -1.6560   -5.8310    3.9370 o         1 MOL     -0.564493
     66 H26        -3.6280   -3.5900    1.0110 hn        1 MOL      0.176391
     67 H27        -4.0120   -5.7320    2.9830 h1        1 MOL      0.132337
     68 H28        -3.6670   -3.9640    3.1600 h1        1 MOL      0.132337
     69 N8         -0.8560   -4.8240    2.1410 n         1 MOL     -0.475440
     70 C22         0.5670   -4.9630    2.3960 c3        1 MOL      0.034006
     71 C23         1.3150   -3.6750    2.0360 c         1 MOL      0.299784
     72 O13         0.8910   -2.9590    1.1300 o         1 MOL     -0.471250
     73 C24         1.3120   -6.0030    1.5060 c3        1 MOL      0.259094
     74 C25         0.8210   -7.3840    1.9350 c3        1 MOL     -0.427645
     75 O14         0.9340   -5.7480    0.1220 oh        1 MOL     -0.549177
     76 H29        -1.0580   -4.3510    1.2630 hn        1 MOL      0.393541
     77 H30         0.6960   -5.1290    3.4590 h1        1 MOL      0.065502
     78 H31         2.3980   -5.9780    1.6310 h1        1 MOL      0.034336
     79 H32         1.7500   -5.4730   -0.3140 ho        1 MOL      0.422828
     80 H33         1.1270   -7.5890    2.9600 hc        1 MOL      0.109960
     81 H34        -0.2640   -7.4800    1.8800 hc        1 MOL      0.109960
     82 H35         1.3140   -8.1460    1.3460 hc        1 MOL      0.109960
     83 N9          2.4350   -3.3910    2.6910 n         1 MOL     -0.265099
     84 C26         3.2880   -2.1610    2.4040 c3        1 MOL      0.125359
     85 C27         4.1570   -2.6290    1.2350 c         1 MOL      0.308229
     86 O15         5.0690   -3.4840    1.4190 o         1 MOL     -0.575865
     87 C28         4.1070   -1.5980    3.5590 c3        1 MOL     -0.046015
     88 C29         5.0560   -0.3470    3.1780 c3        1 MOL      0.573251
     89 C30         3.0770   -1.0290    4.5830 c3        1 MOL     -0.335629
     90 C31         5.9310    0.1390    4.3390 c3        1 MOL     -0.363996
     91 H36         2.8370   -4.0140    3.3730 hn        1 MOL      0.235594
     92 H37         2.6180   -1.3720    2.0330 h1        1 MOL      0.053771
     93 H38         4.6680   -2.4600    3.9090 hc        1 MOL      0.029830
     94 H39         4.5180    0.4870    2.7260 hc        1 MOL     -0.151762
     95 H40         5.7730   -0.6750    2.4260 hc        1 MOL     -0.151762
     96 H41         3.6050   -0.4700    5.3580 hc        1 MOL      0.078816
     97 H42         2.3610   -0.3460    4.1430 hc        1 MOL      0.078816
     98 H43         2.4370   -1.8180    4.9960 hc        1 MOL      0.078816
     99 H44         6.4570    1.0320    3.9830 hc        1 MOL      0.059776
    100 H45         5.3790    0.3900    5.2420 hc        1 MOL      0.059776
    101 H46         6.6050   -0.6750    4.5810 hc        1 MOL      0.059776
    102 N10         4.0830   -1.8590    0.1170 n         1 MOL     -0.044041
    103 C32         4.6820   -2.4000   -1.1400 c3        1 MOL      0.085204
    104 C33         5.9480   -1.5350   -1.4560 c         1 MOL      0.462448
    105 O16         6.7770   -1.9420   -2.2500 o         1 MOL     -0.533800
    106 C34         3.7330   -2.4460   -2.3430 c3        1 MOL     -0.153784
    107 C35         2.3200   -2.8850   -2.0630 c         1 MOL      0.898829
    108 O17         2.2030   -4.0550   -1.6070 o         1 MOL     -0.798534
    109 O18         1.3740   -2.1140   -2.3410 o         1 MOL     -0.798534
    110 H47         3.2870   -1.2440    0.1570 hn        1 MOL      0.115492
    111 H48         4.9990   -3.4250   -0.9510 h1        1 MOL      0.081525
    112 H49         4.2380   -3.0920   -3.0500 hc        1 MOL      0.014367
    113 H50         3.6390   -1.4470   -2.7890 hc        1 MOL      0.014367
    114 N11         6.0820   -0.3730   -0.7880 n         1 MOL     -0.418815
    115 C36         7.1160    0.6430   -1.0620 c3        1 MOL      0.231865
    116 C37         6.6270    1.9510   -0.4370 c         1 MOL      0.348544
    117 O19         6.5240    2.0770    0.7660 o         1 MOL     -0.458895
    118 C38         8.5190    0.2590   -0.4840 c3        1 MOL     -0.330091
    119 C39         9.5580    1.2020   -1.0240 ca        1 MOL      0.064022
    120 C40         9.8440    2.4590   -0.4420 ca        1 MOL     -0.120515
    121 C41        10.1200    1.0260   -2.3420 ca        1 MOL     -0.120515
    122 C42        10.5450    3.4640   -1.0690 ca        1 MOL     -0.122532
    123 C43        10.7630    2.0010   -3.0390 ca        1 MOL     -0.122532
    124 C44        11.0040    3.2500   -2.3690 ca        1 MOL     -0.128789
    125 H51         5.3500   -0.0500   -0.1760 hn        1 MOL      0.184300
    126 H52         7.1730    0.6620   -2.1370 h1        1 MOL      0.042385
    127 H53         8.6800   -0.7940   -0.7100 hc        1 MOL      0.151304
    128 H54         8.4670    0.4920    0.5810 hc        1 MOL      0.151304
    129 H55         9.3590    2.6240    0.5070 ha        1 MOL      0.108797
    130 H56         9.9280    0.1460   -2.9490 ha        1 MOL      0.108797
    131 H57        10.5340    4.4310   -0.5950 ha        1 MOL      0.114903
    132 H58        11.1060    1.8170   -4.0430 ha        1 MOL      0.114903
    133 H59        11.5170    4.0400   -2.9000 ha        1 MOL      0.096503
    134 N12         6.4100    3.0300   -1.2270 n         1 MOL     -0.211720
    135 C45         6.2390    4.4440   -0.7940 c3        1 MOL     -0.022391
    136 C46         5.0390    4.7710    0.1030 c         1 MOL      0.311487
    137 O20         4.9540    5.8540    0.6460 o         1 MOL     -0.519648
    138 C47         6.1880    5.3030   -2.0760 c3        1 MOL      0.076478
    139 C48         7.0640    4.4580   -3.0440 c3        1 MOL     -0.314541
    140 C49         6.6100    3.0150   -2.6920 c3        1 MOL      0.122614
    141 H60         7.1260    4.7780   -0.2380 h1        1 MOL      0.107090
    142 H61         5.1910    5.3400   -2.5150 hc        1 MOL      0.039414
    143 H62         6.5010    6.3360   -1.9410 hc        1 MOL      0.039414
    144 H63         6.8290    4.7540   -4.0680 hc        1 MOL      0.099017
    145 H64         8.0300    4.7210   -2.6090 hc        1 MOL      0.099017
    146 H65         5.8130    2.6280   -3.3180 h1        1 MOL      0.041666
    147 H66         7.4420    2.3600   -2.9240 h1        1 MOL      0.041666
    148 N13         4.0230    3.9390    0.2740 n         1 MOL     -0.182170
    149 C50         2.6970    4.2630    0.8330 c3        1 MOL     -0.019526
    150 C51         2.8050    4.7200    2.2990 c         1 MOL      0.489393
    151 O21         1.9460    5.3800    2.8080 o         1 MOL     -0.545805
    152 C52         1.7440    3.0530    0.7000 c3        1 MOL     -0.102691
    153 C53         2.3420    1.7490    1.2210 c3        1 MOL      0.095478
    154 C54         1.4550    0.6420    0.7660 c         1 MOL      0.588215
    155 O22         1.9110   -0.1550   -0.1090 o         1 MOL     -0.667284
    156 O23         0.3660    0.3720    1.3010 o         1 MOL     -0.667284
    157 H67         4.0240    3.0780   -0.2650 hn        1 MOL      0.183004
    158 H68         2.1440    5.0770    0.3530 h1        1 MOL      0.090809
    159 H69         1.5680    2.9710   -0.3840 hc        1 MOL      0.056758
    160 H70         0.8110    3.2850    1.2170 hc        1 MOL      0.056758
    161 H71         2.4260    1.6910    2.3100 hc        1 MOL     -0.038538
    162 H72         3.3030    1.5700    0.7410 hc        1 MOL     -0.038538
    163 N14         3.8910    4.3340    2.9730 n         1 MOL     -0.166449
    164 C55         4.2140    4.8250    4.3460 c3        1 MOL     -0.193283
    165 H73         5.2080    5.2700    4.3460 h1        1 MOL      0.088556
    166 H74         3.4810    5.5740    4.6460 h1        1 MOL      0.088556
    167 H75         4.1890    3.9890    5.0460 h1        1 MOL      0.088556
    168 H76         4.5730    3.8540    2.4170 hn        1 MOL      0.214162
    169 Ca1        -0.4580   -1.3710   -0.6030 Ca        1 MOL      1.698031
    170 O24        -1.9690    0.9230    0.3040 oh        1 MOL     -0.802961
    171 H77        -1.2500    0.8240    0.9190 ho        1 MOL      0.374574
    172 H78        -2.3040    1.8120    0.4460 ho        1 MOL      0.374574
    173 O25        -2.2860   -1.5830    1.5640 oh        1 MOL     -0.802961
    174 H79        -3.2110   -1.6650    1.3180 ho        1 MOL      0.374574
    175 H80        -2.2410   -0.8000    2.1040 ho        1 MOL      0.374574
    176 O26        -0.0940    0.4750   -2.7520 oh        1 MOL     -0.802961
    177 H81         0.6970    0.3780   -3.2850 ho        1 MOL      0.374574
    178 H82        -0.8060    0.2330   -3.3370 ho        1 MOL      0.374574
@<TRIPOS>BOND
     1    1    2 1   
     2    1    4 1   
     3    1    5 1   
     4    1    6 1   
     5    2    3 2   
     6    2    7 1   
     7    7    8 1   
     8    7   15 1   
     9    8    9 1   
    10    8   11 1   
    11    8   16 1   
    12    9   10 2   
    13    9   19 1   
    14   11   12 1   
    15   11   17 1   
    16   11   18 1   
    17   12   13 1   
    18   12   14 1   
    19   19   20 1   
    20   19   24 1   
    21   20   21 1   
    22   20   23 1   
    23   20   25 1   
    24   21   22 2   
    25   21   29 1   
    26   23   26 1   
    27   23   27 1   
    28   23   28 1   
    29   29   30 1   
    30   29   37 1   
    31   30   31 1   
    32   30   33 1   
    33   30   38 1   
    34   31   32 2   
    35   31   41 1   
    36   33   34 1   
    37   33   39 1   
    38   33   40 1   
    39   34   35 1   
    40   34   36 1   
    41   41   42 1   
    42   41   45 1   
    43   42   43 1   
    44   42   46 1   
    45   42   47 1   
    46   43   44 2   
    47   43   48 1   
    48   48   49 1   
    49   48   56 1   
    50   49   50 1   
    51   49   52 1   
    52   49   57 1   
    53   50   51 2   
    54   50   62 1   
    55   52   53 1   
    56   52   58 1   
    57   52   59 1   
    58   53   54 1   
    59   53   55 2   
    60   54   60 1   
    61   54   61 1   
    62   62   63 1   
    63   62   66 1   
    64   63   64 1   
    65   63   67 1   
    66   63   68 1   
    67   64   65 2   
    68   64   69 1   
    69   69   70 1   
    70   69   76 1   
    71   70   71 1   
    72   70   73 1   
    73   70   77 1   
    74   71   72 2   
    75   71   83 1   
    76   73   74 1   
    77   73   75 1   
    78   73   78 1   
    79   74   80 1   
    80   74   81 1   
    81   74   82 1   
    82   75   79 1   
    83   83   84 1   
    84   83   91 1   
    85   84   85 1   
    86   84   87 1   
    87   84   92 1   
    88   85   86 2   
    89   85  102 1   
    90   87   88 1   
    91   87   89 1   
    92   87   93 1   
    93   88   90 1   
    94   88   94 1   
    95   88   95 1   
    96   89   96 1   
    97   89   97 1   
    98   89   98 1   
    99   90   99 1   
   100   90  100 1   
   101   90  101 1   
   102  102  103 1   
   103  102  110 1   
   104  103  104 1   
   105  103  106 1   
   106  103  111 1   
   107  104  105 2   
   108  104  114 1   
   109  106  107 1   
   110  106  112 1   
   111  106  113 1   
   112  107  108 1   
   113  107  109 1   
   114  114  115 1   
   115  114  125 1   
   116  115  116 1   
   117  115  118 1   
   118  115  126 1   
   119  116  117 2   
   120  116  134 1   
   121  118  119 1   
   122  118  127 1   
   123  118  128 1   
   124  119  120 ar  
   125  119  121 ar  
   126  120  122 ar  
   127  120  129 1   
   128  121  123 ar  
   129  121  130 1   
   130  122  124 ar  
   131  122  131 1   
   132  123  124 ar  
   133  123  132 1   
   134  124  133 1   
   135  134  135 1   
   136  134  140 1   
   137  135  136 1   
   138  135  138 1   
   139  135  141 1   
   140  136  137 2   
   141  136  148 1   
   142  138  139 1   
   143  138  142 1   
   144  138  143 1   
   145  139  140 1   
   146  139  144 1   
   147  139  145 1   
   148  140  146 1   
   149  140  147 1   
   150  148  149 1   
   151  148  157 1   
   152  149  150 1   
   153  149  152 1   
   154  149  158 1   
   155  150  151 2   
   156  150  163 1   
   157  152  153 1   
   158  152  159 1   
   159  152  160 1   
   160  153  154 1   
   161  153  161 1   
   162  153  162 1   
   163  154  155 1   
   164  154  156 1   
   165  163  164 1   
   166  163  168 1   
   167  164  165 1   
   168  164  166 1   
   169  164  167 1   
   170  170  171 1   
   171  170  172 1   
   172  173  174 1   
   173  173  175 1   
   174  176  177 1   
   175  176  178 1   
@<TRIPOS>SUBSTRUCTURE
     1 MOL         1 TEMP              0 ****  ****    0 ROOT
