@<TRIPOS>MOLECULE
MOL
  192   187     1     0     0
SMALL
resp


@<TRIPOS>ATOM
      1 C1          5.2480    3.9650   -3.5680 c3        1 MOL     -0.536542
      2 C2          5.7950    3.0010   -2.5780 c         1 MOL      0.866753
      3 O1          5.3330    2.8740   -1.4690 o         1 MOL     -0.635846
      4 H1          4.1850    4.1130   -3.3790 hc        1 MOL      0.129798
      5 H2          5.7690    4.9170   -3.4750 hc        1 MOL      0.129798
      6 H3          5.3860    3.5700   -4.5740 hc        1 MOL      0.129798
      7 N1          6.8740    2.2880   -2.9250 n         1 MOL     -0.707014
      8 C3          7.4340    1.1450   -2.2000 c3        1 MOL      0.314267
      9 C4          6.4340    0.0490   -1.8090 c         1 MOL      0.148153
     10 O2          5.8850    0.0690   -0.6840 o         1 MOL     -0.522829
     11 C5          8.4530    1.4350   -1.0720 c3        1 MOL     -0.148020
     12 C6          8.1610    2.5770   -0.1530 c         1 MOL      0.758983
     13 O3          7.2520    2.5200    0.6680 o         1 MOL     -0.741613
     14 O4          8.8950    3.5840   -0.2330 o         1 MOL     -0.741613
     15 H4          7.2120    2.4760   -3.8590 hn        1 MOL      0.315965
     16 H5          7.9230    0.6180   -3.0210 h1        1 MOL      0.001368
     17 H6          9.4060    1.6660   -1.5570 hc        1 MOL      0.017686
     18 H7          8.6570    0.5460   -0.4930 hc        1 MOL      0.017686
     19 N2          6.0640   -0.7730   -2.7580 n         1 MOL     -0.110668
     20 C7          5.0130   -1.7470   -2.7710 c3        1 MOL      0.008857
     21 C8          5.3520   -3.0330   -1.9760 c         1 MOL      0.575605
     22 O5          5.7320   -3.9730   -2.5750 o         1 MOL     -0.550790
     23 C9          3.5320   -1.2840   -2.6320 c3        1 MOL     -0.013526
     24 C10         2.5640   -2.3340   -3.1250 c3        1 MOL      0.210795
     25 C11         3.2840    0.1090   -3.3140 c3        1 MOL     -0.427705
     26 C12         2.7370   -2.7500   -4.5900 c3        1 MOL     -0.042763
     27 H8          6.6200   -0.5660   -3.5840 hn        1 MOL      0.208021
     28 H9          5.0450   -2.0810   -3.8080 h1        1 MOL      0.003452
     29 H10         3.3510   -1.1780   -1.5580 hc        1 MOL     -0.044573
     30 H11         1.5170   -2.0280   -3.0650 hc        1 MOL     -0.034062
     31 H12         2.5930   -3.2730   -2.5780 hc        1 MOL     -0.034062
     32 H13         3.7450    0.2340   -4.2890 hc        1 MOL      0.105659
     33 H14         2.2060    0.2640   -3.4040 hc        1 MOL      0.105659
     34 H15         3.6560    0.7590   -2.5270 hc        1 MOL      0.105659
     35 H16         2.9940   -1.9370   -5.2680 hc        1 MOL     -0.007109
     36 H17         3.4300   -3.5860   -4.6770 hc        1 MOL     -0.007109
     37 H18         1.7620   -3.0680   -4.9560 hc        1 MOL     -0.007109
     38 N3          5.2840   -2.9980   -0.6300 n         1 MOL     -0.491962
     39 C13         5.9730   -4.0300    0.2100 c3        1 MOL      0.148084
     40 C14         4.9790   -5.1160    0.7530 c         1 MOL      0.520405
     41 O6          5.3230   -6.3010    0.5630 o         1 MOL     -0.597358
     42 C15         6.8530   -3.4210    1.3190 c3        1 MOL     -0.197740
     43 C16         7.7880   -2.2830    0.8780 c         1 MOL      0.778504
     44 O7          8.2370   -1.5130    1.7400 o         1 MOL     -0.703233
     45 O8          8.2460   -2.3240   -0.3240 o         1 MOL     -0.703233
     46 H19         4.7830   -2.2510   -0.1690 hn        1 MOL      0.361555
     47 H20         6.7080   -4.5280   -0.4140 h1        1 MOL      0.070800
     48 H21         7.4250   -4.2410    1.7430 hc        1 MOL      0.030330
     49 H22         6.1540   -3.1030    2.1050 hc        1 MOL      0.030330
     50 N4          3.8020   -4.7760    1.2390 n         1 MOL     -0.448930
     51 C17         3.2350   -3.5760    1.7540 c3        1 MOL      0.063205
     52 C18         1.8400   -3.7100    2.3400 c         1 MOL      0.661269
     53 O9          1.2380   -4.7680    2.2620 o         1 MOL     -0.570645
     54 H23         3.2050   -5.5660    1.4340 hn        1 MOL      0.272049
     55 H24         3.2590   -2.7490    1.0340 h1        1 MOL      0.048843
     56 H25         3.8460   -3.2700    2.5960 h1        1 MOL      0.048843
     57 N5          1.2540   -2.6470    2.9440 n         1 MOL     -0.538307
     58 C19         1.7190   -1.2550    3.1470 c3        1 MOL      0.009595
     59 C20         2.0950   -0.5650    1.7740 c         1 MOL      0.611523
     60 O10         3.2650   -0.1940    1.5620 o         1 MOL     -0.717824
     61 C21         2.7310   -1.1690    4.2600 c3        1 MOL     -0.334001
     62 C22         2.5200   -2.0460    5.4940 c         1 MOL      0.846458
     63 O11         1.6710   -1.6500    6.3410 o         1 MOL     -0.745393
     64 O12         3.2320   -3.0190    5.6750 o         1 MOL     -0.745393
     65 H26         0.2720   -2.7020    3.1990 hn        1 MOL      0.298845
     66 H27         0.8100   -0.7640    3.5040 h1        1 MOL      0.126456
     67 H28         2.6100   -0.1340    4.5750 hc        1 MOL      0.035566
     68 H29         3.6970   -1.4900    3.8680 hc        1 MOL      0.035566
     69 N6          1.1650   -0.3360    0.8620 n         1 MOL     -0.472179
     70 C23        -0.1900   -0.8780    0.8410 c3        1 MOL     -0.025000
     71 C24        -0.2700   -2.2980    0.2190 c         1 MOL      0.690327
     72 O13         0.6060   -2.7510   -0.4700 o         1 MOL     -0.546508
     73 H30         1.5060    0.1550    0.0530 hn        1 MOL      0.409075
     74 H31        -0.7580   -0.2290    0.1800 h1        1 MOL      0.048958
     75 H32        -0.6480   -0.8810    1.8310 h1        1 MOL      0.048958
     76 N7         -1.4440   -2.9220    0.3610 n         1 MOL     -0.510292
     77 C25        -1.8960   -4.1560   -0.2240 c3        1 MOL     -0.033397
     78 C26        -2.7260   -4.0990   -1.5090 c         1 MOL      0.346914
     79 O14        -3.0520   -5.0910   -2.1460 o         1 MOL     -0.538992
     80 C27        -2.6440   -4.9980    0.7970 c3        1 MOL      0.032352
     81 C28        -3.7570   -4.3390    1.5930 c3        1 MOL     -0.137991
     82 C29        -4.9690   -3.8750    0.8620 c         1 MOL      0.602669
     83 N8         -6.0380   -4.6780    0.8300 n         1 MOL     -0.692145
     84 O15        -5.1050   -2.7140    0.4050 o         1 MOL     -0.550168
     85 H33        -2.1480   -2.2440    0.6210 hn        1 MOL      0.231128
     86 H34        -1.0510   -4.7810   -0.5250 h1        1 MOL      0.152380
     87 H35        -1.8910   -5.4510    1.4280 hc        1 MOL      0.026534
     88 H36        -3.0500   -5.8920    0.3430 hc        1 MOL      0.026534
     89 H37        -3.2860   -3.5140    2.1220 hc        1 MOL      0.053598
     90 H38        -4.0870   -5.0970    2.3120 hc        1 MOL      0.053598
     91 H39        -5.9640   -5.6540    1.1050 hn        1 MOL      0.344359
     92 H40        -6.8390   -4.2990    0.3450 hn        1 MOL      0.344359
     93 N9         -3.0670   -2.8940   -1.9320 n         1 MOL      0.005148
     94 C30        -3.5340   -2.5550   -3.2360 c3        1 MOL     -0.167934
     95 C31        -4.9200   -1.8390   -3.3090 c         1 MOL      0.413163
     96 O16        -5.4200   -1.3790   -4.3460 o         1 MOL     -0.554927
     97 C32        -2.4330   -1.6520   -3.8530 c3        1 MOL      0.041971
     98 C33        -1.1630   -2.4560   -4.1400 c3        1 MOL     -0.018139
     99 C34        -2.0640   -0.3270   -3.0730 c3        1 MOL     -0.018139
    100 H41        -2.7670   -2.0970   -1.3770 hn        1 MOL      0.217509
    101 H42        -3.7470   -3.4610   -3.8090 h1        1 MOL      0.137002
    102 H43        -2.6770   -1.3400   -4.8660 hc        1 MOL      0.015874
    103 H44        -0.6810   -2.7920   -3.2190 hc        1 MOL      0.002316
    104 H45        -1.3970   -3.3330   -4.7350 hc        1 MOL      0.002316
    105 H46        -0.4290   -1.9170   -4.7390 hc        1 MOL      0.002316
    106 H47        -1.4580   -0.5560   -2.1990 hc        1 MOL      0.002316
    107 H48        -1.3440    0.2530   -3.6590 hc        1 MOL      0.002316
    108 H49        -2.8830    0.2910   -2.6930 hc        1 MOL      0.002316
    109 N10        -5.6200   -1.6520   -2.1880 n         1 MOL     -0.115129
    110 C35        -6.8550   -0.8400   -1.9970 c3        1 MOL     -0.025897
    111 C36        -6.7590    0.5360   -1.3470 c         1 MOL      0.611040
    112 O17        -7.6860    1.2470   -1.5540 o         1 MOL     -0.540037
    113 C37        -7.8200   -1.6610   -1.1450 c3        1 MOL     -0.490768
    114 C38        -8.2450   -2.9970   -1.7090 c         1 MOL      0.675137
    115 N11        -8.7830   -3.0660   -2.8630 n         1 MOL     -0.717078
    116 O18        -8.1270   -4.0490   -1.0810 o         1 MOL     -0.572837
    117 H50        -5.2040   -1.9930   -1.3370 hn        1 MOL      0.070439
    118 H51        -7.2730   -0.7820   -3.0030 h1        1 MOL      0.076263
    119 H52        -8.6860   -1.0250   -0.9510 hc        1 MOL      0.177371
    120 H53        -7.3300   -1.7750   -0.1810 hc        1 MOL      0.177371
    121 H54        -8.7650   -2.1980   -3.3830 hn        1 MOL      0.357965
    122 H55        -9.2890   -3.8910   -3.1400 hn        1 MOL      0.357965
    123 N12        -5.6520    0.9270   -0.6590 n         1 MOL     -0.445895
    124 C39        -5.6180    2.1060    0.2200 c3        1 MOL      0.087374
    125 C40        -4.2590    2.8330    0.4370 c         1 MOL      0.496997
    126 O19        -3.1920    2.2870    0.3740 o         1 MOL     -0.449559
    127 C41        -6.0970    1.7030    1.5790 c3        1 MOL     -0.106612
    128 C42        -7.4490    0.9840    1.6290 ca        1 MOL     -0.061968
    129 C43        -8.5870    1.6720    1.1870 ca        1 MOL     -0.099233
    130 C44        -7.6170   -0.3410    2.1310 ca        1 MOL     -0.099233
    131 C45        -9.8600    1.0750    1.1020 ca        1 MOL     -0.241495
    132 C46        -8.8900   -0.9780    2.1660 ca        1 MOL     -0.241495
    133 C47        -9.9690   -0.2450    1.5460 ca        1 MOL      0.291893
    134 O20       -11.1420   -0.9160    1.5930 oh        1 MOL     -0.482390
    135 H56        -4.8880    0.2810   -0.4960 hn        1 MOL      0.219965
    136 H57        -6.2500    2.9420   -0.1010 h1        1 MOL      0.034934
    137 H58        -6.4160    2.5890    2.1180 hc        1 MOL      0.134320
    138 H59        -5.4290    1.0960    2.2070 hc        1 MOL      0.134320
    139 H60        -8.4880    2.6640    0.7710 ha        1 MOL      0.112760
    140 H61        -6.6770   -0.8500    2.3020 ha        1 MOL      0.112760
    141 H62       -10.6160    1.7100    0.6560 ha        1 MOL      0.135135
    142 H63        -8.9490   -2.0230    2.4500 ha        1 MOL      0.135135
    143 H64       -11.8410   -0.4200    1.1450 ho        1 MOL      0.348040
    144 N13        -4.3600    4.1170    0.7890 n         1 MOL     -0.577869
    145 C48        -3.4120    5.0810    1.2340 c3        1 MOL     -0.000193
    146 C49        -2.1760    5.5580    0.3350 c         1 MOL      0.152912
    147 O21        -1.6730    6.7070    0.4430 o         1 MOL     -0.461171
    148 C50        -2.8810    4.6230    2.6350 c3        1 MOL      0.189285
    149 C51        -3.9450    4.4550    3.7040 c3        1 MOL     -0.209308
    150 C52        -3.6050    3.5800    4.9580 c         1 MOL      0.700663
    151 O22        -2.8970    2.6080    4.8010 o         1 MOL     -0.720098
    152 O23        -4.2120    3.7590    6.0710 o         1 MOL     -0.720098
    153 H65        -5.3070    4.4260    0.9340 hn        1 MOL      0.338358
    154 H66        -4.0100    5.9700    1.4780 h1        1 MOL      0.095624
    155 H67        -2.1660    5.3220    3.0810 hc        1 MOL      0.014999
    156 H68        -2.4530    3.6280    2.5210 hc        1 MOL      0.014999
    157 H69        -4.8340    4.0620    3.2120 hc        1 MOL     -0.037880
    158 H70        -4.2170    5.4550    4.0530 hc        1 MOL     -0.037880
    159 N14        -1.6750    4.6750   -0.5120 n         1 MOL      0.052449
    160 C53        -0.5600    4.9660   -1.4100 c3        1 MOL     -0.105402
    161 C54        -1.0390    5.8240   -2.6240 c         1 MOL      0.497668
    162 O24        -0.4200    6.8540   -2.8630 o         1 MOL     -0.523537
    163 C55         0.0320    3.6390   -1.9950 c3        1 MOL     -0.144279
    164 C56         0.4870    2.5870   -0.9380 c3        1 MOL      0.368983
    165 C57         1.9470    2.9270   -0.4380 c         1 MOL      0.639042
    166 O25         2.1140    4.0400    0.0460 o         1 MOL     -0.666888
    167 O26         2.8070    2.0220   -0.3980 o         1 MOL     -0.666888
    168 H71        -1.9930    3.7190   -0.4580 hn        1 MOL      0.129990
    169 H72         0.2660    5.4060   -0.8470 h1        1 MOL      0.130871
    170 H73         0.9120    3.8800   -2.5930 hc        1 MOL      0.006584
    171 H74        -0.7040    3.1660   -2.6400 hc        1 MOL      0.006584
    172 H75         0.5240    1.5520   -1.2730 hc        1 MOL     -0.157339
    173 H76        -0.0730    2.6490   -0.0090 hc        1 MOL     -0.157339
    174 N15        -2.2370    5.5520   -3.1780 n         1 MOL     -0.178905
    175 C58        -2.7490    6.2170   -4.2890 c3        1 MOL     -0.369609
    176 H77        -3.2570    7.1250   -3.9660 h1        1 MOL      0.123817
    177 H78        -1.9350    6.4770   -4.9650 h1        1 MOL      0.123817
    178 H79        -3.4580    5.5690   -4.8050 h1        1 MOL      0.123817
    179 H80        -2.7860    4.8180   -2.7270 hn        1 MOL      0.204982
    180 Ca1         4.8910    1.7120    1.0890 Ca        1 MOL      1.788118
    181 O27         2.7130    2.4670    2.7080 oh        1 MOL     -0.790476
    182 H81         1.8650    2.1380    2.4250 ho        1 MOL      0.387469
    183 H82         2.6340    2.5690    3.6520 ho        1 MOL      0.387469
    184 O28         4.7620    4.4330    0.9570 oh        1 MOL     -0.790476
    185 H83         5.2090    5.0800    0.4030 ho        1 MOL      0.387469
    186 H84         3.8510    4.4390    0.6510 ho        1 MOL      0.387469
    187 O29         5.6140    2.6740    3.7220 oh        1 MOL     -0.790476
    188 H85         6.0350    3.1670    4.4260 ho        1 MOL      0.387469
    189 H86         4.9200    2.1700    4.1650 ho        1 MOL      0.387469
    190 O30         6.3510    0.1040    2.5420 oh        1 MOL     -0.790476
    191 H87         6.4540    0.1150    3.4940 ho        1 MOL      0.387469
    192 H88         6.9120   -0.6150    2.2480 ho        1 MOL      0.387469
@<TRIPOS>BOND
     1    1    2 1   
     2    1    4 1   
     3    1    5 1   
     4    1    6 1   
     5    2    3 2   
     6    2    7 1   
     7    7    8 1   
     8    7   15 1   
     9    8    9 1   
    10    8   11 1   
    11    8   16 1   
    12    9   10 2   
    13    9   19 1   
    14   11   12 1   
    15   11   17 1   
    16   11   18 1   
    17   12   13 1   
    18   12   14 1   
    19   19   20 1   
    20   19   27 1   
    21   20   21 1   
    22   20   23 1   
    23   20   28 1   
    24   21   22 2   
    25   21   38 1   
    26   23   24 1   
    27   23   25 1   
    28   23   29 1   
    29   24   26 1   
    30   24   30 1   
    31   24   31 1   
    32   25   32 1   
    33   25   33 1   
    34   25   34 1   
    35   26   35 1   
    36   26   36 1   
    37   26   37 1   
    38   38   39 1   
    39   38   46 1   
    40   39   40 1   
    41   39   42 1   
    42   39   47 1   
    43   40   41 2   
    44   40   50 1   
    45   42   43 1   
    46   42   48 1   
    47   42   49 1   
    48   43   44 1   
    49   43   45 1   
    50   50   51 1   
    51   50   54 1   
    52   51   52 1   
    53   51   55 1   
    54   51   56 1   
    55   52   53 2   
    56   52   57 1   
    57   57   58 1   
    58   57   65 1   
    59   58   59 1   
    60   58   61 1   
    61   58   66 1   
    62   59   60 2   
    63   59   69 1   
    64   61   62 1   
    65   61   67 1   
    66   61   68 1   
    67   62   63 1   
    68   62   64 1   
    69   69   70 1   
    70   69   73 1   
    71   70   71 1   
    72   70   74 1   
    73   70   75 1   
    74   71   72 2   
    75   71   76 1   
    76   76   77 1   
    77   76   85 1   
    78   77   78 1   
    79   77   80 1   
    80   77   86 1   
    81   78   79 2   
    82   78   93 1   
    83   80   81 1   
    84   80   87 1   
    85   80   88 1   
    86   81   82 1   
    87   81   89 1   
    88   81   90 1   
    89   82   83 1   
    90   82   84 2   
    91   83   91 1   
    92   83   92 1   
    93   93   94 1   
    94   93  100 1   
    95   94   95 1   
    96   94   97 1   
    97   94  101 1   
    98   95   96 2   
    99   95  109 1   
   100   97   98 1   
   101   97   99 1   
   102   97  102 1   
   103   98  103 1   
   104   98  104 1   
   105   98  105 1   
   106   99  106 1   
   107   99  107 1   
   108   99  108 1   
   109  109  110 1   
   110  109  117 1   
   111  110  111 1   
   112  110  113 1   
   113  110  118 1   
   114  111  112 2   
   115  111  123 1   
   116  113  114 1   
   117  113  119 1   
   118  113  120 1   
   119  114  115 1   
   120  114  116 2   
   121  115  121 1   
   122  115  122 1   
   123  123  124 1   
   124  123  135 1   
   125  124  125 1   
   126  124  127 1   
   127  124  136 1   
   128  125  126 2   
   129  125  144 1   
   130  127  128 1   
   131  127  137 1   
   132  127  138 1   
   133  128  129 ar  
   134  128  130 ar  
   135  129  131 ar  
   136  129  139 1   
   137  130  132 ar  
   138  130  140 1   
   139  131  133 ar  
   140  131  141 1   
   141  132  133 ar  
   142  132  142 1   
   143  133  134 1   
   144  134  143 1   
   145  144  145 1   
   146  144  153 1   
   147  145  146 1   
   148  145  148 1   
   149  145  154 1   
   150  146  147 2   
   151  146  159 1   
   152  148  149 1   
   153  148  155 1   
   154  148  156 1   
   155  149  150 1   
   156  149  157 1   
   157  149  158 1   
   158  150  151 1   
   159  150  152 1   
   160  159  160 1   
   161  159  168 1   
   162  160  161 1   
   163  160  163 1   
   164  160  169 1   
   165  161  162 2   
   166  161  174 1   
   167  163  164 1   
   168  163  170 1   
   169  163  171 1   
   170  164  165 1   
   171  164  172 1   
   172  164  173 1   
   173  165  166 1   
   174  165  167 1   
   175  174  175 1   
   176  174  179 1   
   177  175  176 1   
   178  175  177 1   
   179  175  178 1   
   180  181  182 1   
   181  181  183 1   
   182  184  185 1   
   183  184  186 1   
   184  187  188 1   
   185  187  189 1   
   186  190  191 1   
   187  190  192 1   
@<TRIPOS>SUBSTRUCTURE
     1 MOL         1 TEMP              0 ****  ****    0 ROOT
