@<TRIPOS>MOLECULE
MOL
  189   185     1     0     0
SMALL
resp


@<TRIPOS>ATOM
      1 C1          5.1170    4.2290   -3.5520 c3        1 MOL     -0.490107
      2 C2          5.7080    3.3710   -2.3520 c         1 MOL      0.740886
      3 O1          5.0340    3.0790   -1.3890 o         1 MOL     -0.636723
      4 H1          4.2780    3.6960   -4.0010 hc        1 MOL      0.127202
      5 H2          4.7740    5.1930   -3.1760 hc        1 MOL      0.127202
      6 H3          5.8910    4.3860   -4.3030 hc        1 MOL      0.127202
      7 N1          6.9990    3.0720   -2.3840 n         1 MOL     -0.591792
      8 C3          7.5090    1.8810   -1.6990 c3        1 MOL      0.214300
      9 C4          6.5760    0.6910   -1.5320 c         1 MOL      0.568334
     10 O2          6.2800    0.2810   -0.4060 o         1 MOL     -0.537857
     11 C5          8.4110    2.1890   -0.5180 c3        1 MOL     -0.218746
     12 C6          7.8910    3.0440    0.6280 c         1 MOL      0.771553
     13 O3          6.9750    2.5970    1.3790 o         1 MOL     -0.734984
     14 O4          8.3840    4.2230    0.7220 o         1 MOL     -0.734984
     15 H4          7.5980    3.5120   -3.0730 hn        1 MOL      0.331029
     16 H5          8.2000    1.5150   -2.4610 h1        1 MOL     -0.007276
     17 H6          9.2440    2.7320   -0.9580 hc        1 MOL      0.043721
     18 H7          8.7830    1.2380   -0.1120 hc        1 MOL      0.043721
     19 N2          6.1910    0.0700   -2.6750 n         1 MOL     -0.591475
     20 C7          5.3480   -1.1210   -2.8810 c3        1 MOL      0.158970
     21 C8          5.7610   -2.5400   -2.3140 c         1 MOL      0.350154
     22 O5          5.7790   -3.5620   -2.9910 o         1 MOL     -0.557007
     23 C9          3.8070   -0.9150   -2.5770 c3        1 MOL      0.309950
     24 C10         3.0070   -2.0540   -3.2140 c3        1 MOL     -0.212556
     25 C11         3.1970    0.3960   -3.0100 c3        1 MOL     -0.114919
     26 C12         2.7980   -2.0440   -4.7510 c3        1 MOL     -0.425550
     27 H8          6.2660    0.5900   -3.5410 hn        1 MOL      0.276799
     28 H9          5.3990   -1.3010   -3.9510 h1        1 MOL      0.024844
     29 H10         3.7480   -0.9590   -1.4950 hc        1 MOL     -0.160706
     30 H11         1.9930   -1.9890   -2.8280 hc        1 MOL      0.143088
     31 H12         3.2600   -3.0640   -2.9010 hc        1 MOL      0.143088
     32 H13         2.1680    0.3810   -2.6440 hc        1 MOL      0.021496
     33 H14         3.7130    1.2030   -2.4930 hc        1 MOL      0.021496
     34 H15         3.4300    0.6690   -4.0430 hc        1 MOL      0.021496
     35 H16         2.1790   -2.9160   -4.9760 hc        1 MOL      0.099064
     36 H17         2.2460   -1.1490   -5.0620 hc        1 MOL      0.099064
     37 H18         3.7700   -2.1880   -5.2080 hc        1 MOL      0.099064
     38 N3          5.9600   -2.6660   -1.0240 n         1 MOL     -0.071656
     39 C13         6.3060   -3.9490   -0.3870 c3        1 MOL     -0.134925
     40 C14         5.2580   -5.0730   -0.4960 c         1 MOL      0.642517
     41 O6          5.6270   -6.2150   -0.7350 o         1 MOL     -0.608209
     42 C15         6.6150   -3.8560    1.0690 c3        1 MOL     -0.379098
     43 C16         7.5900   -2.8060    1.5740 c         1 MOL      0.839629
     44 O7          7.1690   -1.9740    2.4340 o         1 MOL     -0.740041
     45 O8          8.8310   -2.8390    1.2780 o         1 MOL     -0.740041
     46 H19         6.0190   -1.8560   -0.4140 hn        1 MOL      0.183080
     47 H20         7.1770   -4.3130   -0.9260 h1        1 MOL      0.104096
     48 H21         6.9480   -4.8190    1.4660 hc        1 MOL      0.105884
     49 H22         5.6650   -3.6120    1.5570 hc        1 MOL      0.105884
     50 N4          3.9690   -4.9780   -0.2370 n         1 MOL     -0.520247
     51 C17         3.2480   -3.8210    0.3030 c3        1 MOL      0.297279
     52 C18         2.0020   -4.2590    1.1760 c         1 MOL      0.346070
     53 O9          1.3950   -5.4180    1.0550 o         1 MOL     -0.576306
     54 H23         3.4260   -5.7850   -0.5190 hn        1 MOL      0.285903
     55 H24         3.0180   -3.2510   -0.5950 h1        1 MOL     -0.015368
     56 H25         3.7870   -3.2150    1.0210 h1        1 MOL     -0.015368
     57 N5          1.5220   -3.5180    2.1500 n         1 MOL     -0.288826
     58 C19         1.8660   -2.2120    2.7530 c3        1 MOL      0.410640
     59 C20         2.1630   -1.0210    1.7550 c         1 MOL      0.078836
     60 O10         3.3010   -0.4870    1.6070 o         1 MOL     -0.465277
     61 C21         2.9770   -2.3280    3.7570 c3        1 MOL     -0.367920
     62 C22         3.0790   -1.1500    4.7390 c         1 MOL      0.760983
     63 O11         2.1300   -0.3780    4.9000 o         1 MOL     -0.684703
     64 O12         4.0940   -1.0200    5.4360 o         1 MOL     -0.684703
     65 H26         0.6440   -3.8860    2.4810 hn        1 MOL      0.186948
     66 H27         1.0470   -1.8630    3.3760 h1        1 MOL     -0.015869
     67 H28         3.9610   -2.3080    3.2820 hc        1 MOL      0.056200
     68 H29         2.8210   -3.2280    4.3550 hc        1 MOL      0.056200
     69 N6          1.1770   -0.5190    1.0160 n         1 MOL     -0.142333
     70 C23        -0.2300   -0.9710    0.9120 c3        1 MOL      0.076442
     71 C24        -0.5190   -2.2660    0.1300 c         1 MOL      0.324958
     72 O13         0.2370   -2.6520   -0.7210 o         1 MOL     -0.502043
     73 H30         1.4000    0.2420    0.3880 hn        1 MOL      0.232553
     74 H31        -0.8110   -0.2040    0.3830 h1        1 MOL      0.007369
     75 H32        -0.6140   -1.0200    1.9290 h1        1 MOL      0.007369
     76 N7         -1.6280   -2.9510    0.4200 n         1 MOL     -0.346626
     77 C25        -2.0780   -4.1950   -0.2670 c3        1 MOL      0.039777
     78 C26        -2.7210   -3.8650   -1.6580 c         1 MOL      0.429195
     79 O14        -2.9410   -4.8360   -2.3660 o         1 MOL     -0.504280
     80 C27        -3.0280   -4.9920    0.6140 c3        1 MOL      0.133141
     81 C28        -2.5010   -5.3900    2.0070 c3        1 MOL     -0.256722
     82 C29        -3.5530   -5.7260    3.0740 c         1 MOL      0.666546
     83 N8         -3.3070   -6.3120    4.1800 n         1 MOL     -0.787392
     84 O15        -4.6900   -5.4530    2.8820 o         1 MOL     -0.544720
     85 H33        -2.2170   -2.6740    1.1940 hn        1 MOL      0.282790
     86 H34        -1.2580   -4.8880   -0.4460 h1        1 MOL      0.126633
     87 H35        -3.1990   -5.9530    0.1320 hc        1 MOL     -0.011617
     88 H36        -3.9070   -4.3650    0.7750 hc        1 MOL     -0.011617
     89 H37        -2.0210   -4.5050    2.4440 hc        1 MOL      0.073922
     90 H38        -1.7700   -6.1950    1.9320 hc        1 MOL      0.073922
     91 H39        -2.3320   -6.5650    4.2930 hn        1 MOL      0.359555
     92 H40        -4.0390   -6.4430    4.8550 hn        1 MOL      0.359555
     93 N9         -3.0210   -2.5550   -1.9220 n         1 MOL     -0.252414
     94 C30        -3.6030   -2.1670   -3.2670 c3        1 MOL     -0.187671
     95 C31        -5.0150   -1.5130   -3.2960 c         1 MOL      0.625099
     96 O16        -5.6470   -1.4840   -4.2750 o         1 MOL     -0.567296
     97 C32        -2.6030   -1.2170   -4.1130 c3        1 MOL      0.175636
     98 C33        -1.4380   -2.0500   -4.6800 c3        1 MOL     -0.258751
     99 C34        -2.0800   -0.0730   -3.2490 c3        1 MOL     -0.258751
    100 H41        -2.6820   -1.8650   -1.2750 hn        1 MOL      0.183909
    101 H42        -3.6180   -3.1220   -3.7980 h1        1 MOL      0.129348
    102 H43        -3.0920   -0.8020   -4.9930 hc        1 MOL      0.014111
    103 H44        -0.7790   -1.4900   -5.3320 hc        1 MOL      0.070683
    104 H45        -0.9010   -2.4210   -3.8010 hc        1 MOL      0.070683
    105 H46        -1.8490   -2.8980   -5.2290 hc        1 MOL      0.070683
    106 H47        -2.8580    0.6240   -2.9660 hc        1 MOL      0.070683
    107 H48        -1.4810   -0.4910   -2.4400 hc        1 MOL      0.070683
    108 H49        -1.2690    0.4340   -3.7720 hc        1 MOL      0.070683
    109 N10        -5.5440   -1.0090   -2.1890 n         1 MOL     -0.365994
    110 C35        -6.9520   -0.6200   -2.0450 c3        1 MOL     -0.111611
    111 C36        -7.0810    0.7580   -1.4090 c         1 MOL      0.634997
    112 O17        -8.0350    1.4310   -1.5320 o         1 MOL     -0.565920
    113 C37        -7.6290   -1.6740   -1.1690 c3        1 MOL     -0.279790
    114 C38        -7.7430   -3.1590   -1.6070 c         1 MOL      0.608963
    115 N11        -7.9290   -3.3380   -2.9220 n         1 MOL     -0.748216
    116 O18        -7.7420   -4.0640   -0.7660 o         1 MOL     -0.539190
    117 H50        -4.9850   -1.0880   -1.3460 hn        1 MOL      0.204618
    118 H51        -7.4190   -0.5750   -3.0340 h1        1 MOL      0.126555
    119 H52        -8.6780   -1.4220   -1.0080 hc        1 MOL      0.133880
    120 H53        -7.1390   -1.4790   -0.2100 hc        1 MOL      0.133880
    121 H54        -7.6850   -2.6160   -3.5900 hn        1 MOL      0.358563
    122 H55        -8.2030   -4.2890   -3.1210 hn        1 MOL      0.358563
    123 N12        -6.0490    1.1430   -0.6430 n         1 MOL     -0.520095
    124 C39        -6.0900    2.2440    0.3090 c3        1 MOL      0.353945
    125 C40        -4.6980    2.8390    0.4760 c         1 MOL      0.250916
    126 O19        -3.6860    2.1620    0.2080 o         1 MOL     -0.450009
    127 C41        -6.4540    1.7340    1.6890 c3        1 MOL     -0.335406
    128 C42        -7.7850    1.0030    1.7920 ca        1 MOL      0.127119
    129 C43        -8.9640    1.7320    1.3950 ca        1 MOL     -0.216827
    130 C44        -7.8580   -0.3570    2.1240 ca        1 MOL     -0.216827
    131 C45       -10.2140    1.0720    1.3840 ca        1 MOL     -0.216202
    132 C46        -9.0590   -1.0360    2.1230 ca        1 MOL     -0.216202
    133 C47       -10.2530   -0.3130    1.7640 ca        1 MOL      0.288124
    134 O20       -11.4680   -0.9350    1.9050 oh        1 MOL     -0.491722
    135 H56        -5.2480    0.5230   -0.6490 hn        1 MOL      0.264347
    136 H57        -6.8080    2.9950   -0.0430 h1        1 MOL      0.019558
    137 H58        -6.6450    2.6570    2.2370 hc        1 MOL      0.128840
    138 H59        -5.6300    1.1150    2.0580 hc        1 MOL      0.128840
    139 H60        -8.7880    2.7380    1.0440 ha        1 MOL      0.157323
    140 H61        -6.9490   -0.8680    2.4050 ha        1 MOL      0.157323
    141 H62       -11.0700    1.6430    1.0890 ha        1 MOL      0.145813
    142 H63        -9.0440   -2.1010    2.3290 ha        1 MOL      0.145813
    143 H64       -12.2440   -0.4020    1.7050 ho        1 MOL      0.356156
    144 N13        -4.6240    4.1400    0.8800 n         1 MOL     -0.486487
    145 C48        -3.4330    4.9540    1.3080 c3        1 MOL      0.192374
    146 C49        -2.4010    5.3220    0.2450 c         1 MOL      0.080546
    147 O21        -2.0730    6.4980    0.0810 o         1 MOL     -0.463469
    148 C50        -2.8790    4.4600    2.5900 c3        1 MOL     -0.147537
    149 C51        -1.8470    5.4230    3.2850 c3        1 MOL     -0.163118
    150 C52        -1.5850    4.8210    4.6900 c         1 MOL      0.727161
    151 O22        -1.2280    3.6320    4.6540 o         1 MOL     -0.727977
    152 O23        -1.7280    5.5700    5.7070 o         1 MOL     -0.727977
    153 H65        -5.5010    4.6300    0.9950 hn        1 MOL      0.290462
    154 H66        -3.9160    5.8910    1.5930 h1        1 MOL      0.059200
    155 H67        -2.3250    3.5390    2.4240 hc        1 MOL      0.071923
    156 H68        -3.7470    4.3460    3.2390 hc        1 MOL      0.071923
    157 H69        -2.4040    6.3290    3.5130 hc        1 MOL      0.017657
    158 H70        -0.9070    5.6180    2.7670 hc        1 MOL      0.017657
    159 N14        -1.8510    4.3700   -0.5210 n         1 MOL      0.111186
    160 C53        -0.7830    4.4880   -1.4630 c3        1 MOL     -0.069040
    161 C54        -1.1140    5.2460   -2.7580 c         1 MOL      0.476726
    162 O24        -0.3130    6.0740   -3.2520 o         1 MOL     -0.529972
    163 C55        -0.2470    3.0980   -1.7850 c3        1 MOL      0.217062
    164 C56         0.0790    2.2280   -0.5740 c3        1 MOL      0.213162
    165 C57         1.2930    2.6810    0.1660 c         1 MOL      0.505784
    166 O25         2.3610    2.0980   -0.1380 o         1 MOL     -0.620206
    167 O26         1.2430    3.4930    1.1590 o         1 MOL     -0.620206
    168 H71        -2.2950    3.4700   -0.5540 hn        1 MOL      0.174843
    169 H72         0.0390    5.0750   -1.0700 h1        1 MOL      0.112192
    170 H73         0.6390    3.2530   -2.4040 hc        1 MOL     -0.128120
    171 H74        -1.0860    2.6310   -2.2940 hc        1 MOL     -0.128120
    172 H75         0.2150    1.1860   -0.8630 hc        1 MOL     -0.068439
    173 H76        -0.6140    2.2790    0.2660 hc        1 MOL     -0.068439
    174 N15        -2.4200    5.1570   -3.1270 n         1 MOL     -0.276546
    175 C58        -3.0590    6.0010   -4.1110 c3        1 MOL     -0.365397
    176 H77        -3.8990    5.4680   -4.5570 h1        1 MOL      0.135785
    177 H78        -3.4210    6.9100   -3.6310 h1        1 MOL      0.135785
    178 H79        -2.3410    6.2620   -4.8890 h1        1 MOL      0.135785
    179 H80        -2.9980    4.6660   -2.4570 hn        1 MOL      0.238755
    180 Ca1         4.6090    1.9880    1.0670 Ca        1 MOL      1.722185
    181 O27         2.7110    2.2570    2.9130 oh        1 MOL     -0.869357
    182 H81         2.0480    2.8440    2.5540 ho        1 MOL      0.427752
    183 H82         2.2240    1.4770    3.1790 ho        1 MOL      0.427752
    184 O28         4.5840    4.6320    1.3100 oh        1 MOL     -0.869357
    185 H83         5.1630    5.3350    1.0140 ho        1 MOL      0.427752
    186 H84         3.7590    5.0740    1.4900 ho        1 MOL      0.427752
    187 O29         5.4320    0.4010    3.2100 oh        1 MOL     -0.869357
    188 H85         5.7000   -0.3280    2.6560 ho        1 MOL      0.427752
    189 H86         4.9810   -0.0100    3.9420 ho        1 MOL      0.427752
@<TRIPOS>BOND
     1    1    2 1   
     2    1    4 1   
     3    1    5 1   
     4    1    6 1   
     5    2    3 2   
     6    2    7 1   
     7    7    8 1   
     8    7   15 1   
     9    8    9 1   
    10    8   11 1   
    11    8   16 1   
    12    9   10 2   
    13    9   19 1   
    14   11   12 1   
    15   11   17 1   
    16   11   18 1   
    17   12   13 1   
    18   12   14 1   
    19   19   20 1   
    20   19   27 1   
    21   20   21 1   
    22   20   23 1   
    23   20   28 1   
    24   21   22 2   
    25   21   38 1   
    26   23   24 1   
    27   23   25 1   
    28   23   29 1   
    29   24   26 1   
    30   24   30 1   
    31   24   31 1   
    32   25   32 1   
    33   25   33 1   
    34   25   34 1   
    35   26   35 1   
    36   26   36 1   
    37   26   37 1   
    38   38   39 1   
    39   38   46 1   
    40   39   40 1   
    41   39   42 1   
    42   39   47 1   
    43   40   41 2   
    44   40   50 1   
    45   42   43 1   
    46   42   48 1   
    47   42   49 1   
    48   43   44 1   
    49   43   45 1   
    50   50   51 1   
    51   50   54 1   
    52   51   52 1   
    53   51   55 1   
    54   51   56 1   
    55   52   53 2   
    56   52   57 1   
    57   57   58 1   
    58   57   65 1   
    59   58   59 1   
    60   58   61 1   
    61   58   66 1   
    62   59   60 2   
    63   59   69 1   
    64   61   62 1   
    65   61   67 1   
    66   61   68 1   
    67   62   63 1   
    68   62   64 1   
    69   69   70 1   
    70   69   73 1   
    71   70   71 1   
    72   70   74 1   
    73   70   75 1   
    74   71   72 2   
    75   71   76 1   
    76   76   77 1   
    77   76   85 1   
    78   77   78 1   
    79   77   80 1   
    80   77   86 1   
    81   78   79 2   
    82   78   93 1   
    83   80   81 1   
    84   80   87 1   
    85   80   88 1   
    86   81   82 1   
    87   81   89 1   
    88   81   90 1   
    89   82   83 1   
    90   82   84 2   
    91   83   91 1   
    92   83   92 1   
    93   93   94 1   
    94   93  100 1   
    95   94   95 1   
    96   94   97 1   
    97   94  101 1   
    98   95   96 2   
    99   95  109 1   
   100   97   98 1   
   101   97   99 1   
   102   97  102 1   
   103   98  103 1   
   104   98  104 1   
   105   98  105 1   
   106   99  106 1   
   107   99  107 1   
   108   99  108 1   
   109  109  110 1   
   110  109  117 1   
   111  110  111 1   
   112  110  113 1   
   113  110  118 1   
   114  111  112 2   
   115  111  123 1   
   116  113  114 1   
   117  113  119 1   
   118  113  120 1   
   119  114  115 1   
   120  114  116 2   
   121  115  121 1   
   122  115  122 1   
   123  123  124 1   
   124  123  135 1   
   125  124  125 1   
   126  124  127 1   
   127  124  136 1   
   128  125  126 2   
   129  125  144 1   
   130  127  128 1   
   131  127  137 1   
   132  127  138 1   
   133  128  129 ar  
   134  128  130 ar  
   135  129  131 ar  
   136  129  139 1   
   137  130  132 ar  
   138  130  140 1   
   139  131  133 ar  
   140  131  141 1   
   141  132  133 ar  
   142  132  142 1   
   143  133  134 1   
   144  134  143 1   
   145  144  145 1   
   146  144  153 1   
   147  145  146 1   
   148  145  148 1   
   149  145  154 1   
   150  146  147 2   
   151  146  159 1   
   152  148  149 1   
   153  148  155 1   
   154  148  156 1   
   155  149  150 1   
   156  149  157 1   
   157  149  158 1   
   158  150  151 1   
   159  150  152 1   
   160  159  160 1   
   161  159  168 1   
   162  160  161 1   
   163  160  163 1   
   164  160  169 1   
   165  161  162 2   
   166  161  174 1   
   167  163  164 1   
   168  163  170 1   
   169  163  171 1   
   170  164  165 1   
   171  164  172 1   
   172  164  173 1   
   173  165  166 1   
   174  165  167 1   
   175  174  175 1   
   176  174  179 1   
   177  175  176 1   
   178  175  177 1   
   179  175  178 1   
   180  181  182 1   
   181  181  183 1   
   182  184  185 1   
   183  184  186 1   
   184  187  188 1   
   185  187  189 1   
@<TRIPOS>SUBSTRUCTURE
     1 MOL         1 TEMP              0 ****  ****    0 ROOT
