@<TRIPOS>MOLECULE
MOL
  182   178     1     0     0
SMALL
resp


@<TRIPOS>ATOM
      1 C1          0.3350   -2.7900    6.4950 c3        1 MOL     -0.414380
      2 C2          0.3940   -3.0410    4.9750 c         1 MOL      0.705727
      3 O1         -0.5450   -2.9440    4.1830 o         1 MOL     -0.566120
      4 H1         -0.7050   -2.7460    6.8160 hc        1 MOL      0.125662
      5 H2          0.8430   -3.6010    7.0180 hc        1 MOL      0.125662
      6 H3          0.8260   -1.8450    6.7270 hc        1 MOL      0.125662
      7 N1          1.6040   -3.1820    4.4050 n         1 MOL     -0.570675
      8 C3          1.9150   -3.0450    2.9310 c3        1 MOL      0.053312
      9 C4          1.9470   -4.3970    2.1510 c         1 MOL      0.686783
     10 O2          2.1730   -5.3940    2.7780 o         1 MOL     -0.576004
     11 C5          3.2180   -2.2430    2.7240 c3        1 MOL     -0.106203
     12 C6          3.2960   -1.5080    1.3550 c         1 MOL      0.512470
     13 O3          3.8920   -0.4140    1.2250 o         1 MOL     -0.688256
     14 O4          2.7290   -2.0050    0.3740 o         1 MOL     -0.688256
     15 H4          2.3950   -3.1420    5.0280 hn        1 MOL      0.304294
     16 H5          1.2060   -2.4640    2.3510 h1        1 MOL      0.088544
     17 H6          4.0960   -2.8930    2.7730 hc        1 MOL      0.053606
     18 H7          3.3780   -1.4860    3.4840 hc        1 MOL      0.053606
     19 N2          1.7630   -4.3930    0.8200 n         1 MOL     -0.630743
     20 C7          1.8450   -5.5870   -0.1290 c3        1 MOL      0.419135
     21 C8          3.0940   -5.5120   -1.0040 c         1 MOL      0.428844
     22 O5          3.2960   -6.5120   -1.6460 o         1 MOL     -0.561218
     23 C9          0.4850   -5.5480   -0.9130 c3        1 MOL     -0.086853
     24 C10        -0.1290   -6.9470   -1.1120 c3        1 MOL      0.118165
     25 C11        -1.3710   -6.8150   -2.0280 c3        1 MOL     -0.159828
     26 C12        -1.6240   -8.2110   -2.7110 c3        1 MOL      0.204205
     27 N3         -3.0260   -8.4520   -3.1890 n4        1 MOL     -0.457346
     28 H8          1.6270   -3.5430    0.3000 hn        1 MOL      0.297019
     29 H9          1.9390   -6.5260    0.4310 h1        1 MOL     -0.015733
     30 H10         0.6620   -5.1130   -1.8940 hc        1 MOL     -0.010169
     31 H11        -0.2710   -5.0560   -0.3080 hc        1 MOL     -0.010169
     32 H12        -0.4170   -7.2740   -0.1130 hc        1 MOL     -0.003734
     33 H13         0.6460   -7.5750   -1.5330 hc        1 MOL     -0.003734
     34 H14        -1.2720   -6.0640   -2.8060 hc        1 MOL      0.071205
     35 H15        -2.2770   -6.5370   -1.4750 hc        1 MOL      0.071205
     36 H16        -1.4520   -8.9410   -1.9200 hx        1 MOL      0.025699
     37 H17        -0.9520   -8.5550   -3.5030 hx        1 MOL      0.025699
     38 H18        -2.9200   -8.7490   -4.1390 hn        1 MOL      0.300504
     39 H19        -3.4360   -9.0850   -2.5130 hn        1 MOL      0.300504
     40 H20        -3.6050   -7.6280   -3.1880 hn        1 MOL      0.300504
     41 N4          3.8490   -4.4500   -0.9680 n         1 MOL     -0.304218
     42 C13         5.1270   -4.3410   -1.7470 c3        1 MOL      0.275967
     43 C14         6.3010   -3.9690   -0.8660 c         1 MOL      0.282991
     44 O6          7.3790   -4.5860   -0.8700 o         1 MOL     -0.513057
     45 C15         4.9510   -3.3070   -2.8660 c3        1 MOL     -0.289047
     46 C16         4.2710   -1.9730   -2.5720 c         1 MOL      0.802631
     47 O7          4.8050   -1.1850   -1.7600 o         1 MOL     -0.753792
     48 O8          3.2040   -1.6450   -3.0800 o         1 MOL     -0.753792
     49 H21         3.6720   -3.7250   -0.2860 hn        1 MOL      0.073508
     50 H22         5.3550   -5.2470   -2.3040 h1        1 MOL      0.051617
     51 H23         4.4530   -3.8300   -3.6800 hc        1 MOL      0.068997
     52 H24         5.9760   -3.0970   -3.1820 hc        1 MOL      0.068997
     53 N5          6.1530   -2.8660   -0.0820 n         1 MOL     -0.087801
     54 C17         7.0910   -2.2800    0.9370 c3        1 MOL     -0.171688
     55 C18         7.4110   -0.8160    0.8970 c         1 MOL      0.501085
     56 O9          8.4010   -0.3900    1.4930 o         1 MOL     -0.541997
     57 H25         5.3880   -2.2830   -0.3800 hn        1 MOL      0.209965
     58 H26         8.0760   -2.7180    0.8250 h1        1 MOL      0.106358
     59 H27         6.6990   -2.4720    1.9360 h1        1 MOL      0.106358
     60 N6          6.7910   -0.0990   -0.0500 n         1 MOL     -0.137179
     61 C19         7.0980    1.2660   -0.4150 c3        1 MOL      0.013468
     62 C20         5.8860    2.2180   -0.4490 c         1 MOL      0.548664
     63 O10         4.7430    1.7650   -0.5980 o         1 MOL     -0.449254
     64 C21         7.7330    1.0840   -1.8080 c3        1 MOL     -0.300896
     65 C22         8.9650    0.2480   -1.7750 c         1 MOL      0.694999
     66 N7          8.8260   -0.9240   -2.3570 n         1 MOL     -0.781701
     67 O11        10.0420    0.5900   -1.3870 o         1 MOL     -0.544013
     68 H28         6.0170   -0.5590   -0.5070 hn        1 MOL      0.120313
     69 H29         7.7940    1.6330    0.3260 h1        1 MOL      0.058504
     70 H30         8.0580    2.0100   -2.2870 hc        1 MOL      0.068193
     71 H31         6.9490    0.6560   -2.4390 hc        1 MOL      0.068193
     72 H32         7.9240   -1.1870   -2.7340 hn        1 MOL      0.362463
     73 H33         9.6870   -1.4390   -2.4920 hn        1 MOL      0.362463
     74 N8          6.2620    3.5040   -0.3280 n         1 MOL     -0.521194
     75 C23         5.3070    4.6410   -0.6010 c3        1 MOL      0.055188
     76 C24         4.1270    4.7170    0.3700 c         1 MOL      0.515129
     77 O12         4.1270    4.4300    1.5750 o         1 MOL     -0.502593
     78 H34         7.2250    3.7680   -0.1960 hn        1 MOL      0.355464
     79 H35         4.8770    4.5190   -1.5900 h1        1 MOL      0.054588
     80 H36         5.7970    5.6070   -0.6630 h1        1 MOL      0.054588
     81 N9          3.0060    5.1340   -0.1660 n         1 MOL     -0.432287
     82 C25         1.6870    4.9800    0.4290 c3        1 MOL     -0.011252
     83 C26         1.2770    3.5300    0.7520 c         1 MOL      0.599967
     84 O13         1.9040    2.6100    0.1560 o         1 MOL     -0.515408
     85 C27         0.7550    5.8070   -0.4970 c3        1 MOL     -0.090243
     86 C28         1.0330    7.3170   -0.6490 ca        1 MOL      0.104102
     87 C29         1.3520    8.1440    0.4650 ca        1 MOL     -0.181212
     88 C30         0.9900    7.8020   -1.9320 ca        1 MOL     -0.181212
     89 C31         1.5450    9.4780    0.2560 ca        1 MOL     -0.239332
     90 C32         1.0740    9.1940   -2.1140 ca        1 MOL     -0.239332
     91 C33         1.3670   10.0360   -1.0200 ca        1 MOL      0.353011
     92 O14         1.5960   11.3990   -1.1740 oh        1 MOL     -0.535063
     93 H37         2.9720    5.5650   -1.0760 hn        1 MOL      0.242788
     94 H38         1.7580    5.3490    1.4550 h1        1 MOL      0.096360
     95 H39        -0.2240    5.8030   -0.0240 hc        1 MOL      0.038779
     96 H40         0.5620    5.2650   -1.4330 hc        1 MOL      0.038779
     97 H41         1.4240    7.7580    1.4720 ha        1 MOL      0.139843
     98 H42         0.8420    7.1150   -2.7620 ha        1 MOL      0.139843
     99 H43         1.8320   10.0950    1.0910 ha        1 MOL      0.156547
    100 H44         0.9590    9.5340   -3.1370 ha        1 MOL      0.156547
    101 H45         1.9220   11.8910   -0.4120 ho        1 MOL      0.398420
    102 N10         0.3770    3.3030    1.7270 n         1 MOL     -0.686789
    103 C34         0.0910    2.0270    2.3320 c3        1 MOL      0.192814
    104 C35        -0.1380    0.8970    1.3630 c         1 MOL      0.160055
    105 O15         0.8310    0.2060    0.9730 o         1 MOL     -0.344309
    106 C36         1.1940    1.6520    3.3210 c3        1 MOL      0.298601
    107 C37         0.6830    0.5740    4.2800 c3        1 MOL     -0.278707
    108 C38         1.8060    2.8360    4.1460 c3        1 MOL     -0.107916
    109 C39        -0.3630    0.8240    5.3940 c3        1 MOL     -0.238035
    110 H46         0.0670    4.1040    2.2490 hn        1 MOL      0.350615
    111 H47        -0.7990    2.0360    2.9670 h1        1 MOL      0.064219
    112 H48         2.0090    1.1790    2.7750 hc        1 MOL     -0.017471
    113 H49         1.5570    0.1210    4.7380 hc        1 MOL      0.115126
    114 H50         0.3690   -0.3490    3.7930 hc        1 MOL      0.115126
    115 H51         2.5000    2.3930    4.8650 hc        1 MOL      0.020860
    116 H52         2.1870    3.6000    3.4730 hc        1 MOL      0.020860
    117 H53         0.9940    3.3670    4.6460 hc        1 MOL      0.020860
    118 H54        -1.1370    1.4720    4.9820 hc        1 MOL      0.064881
    119 H55        -0.8130   -0.1320    5.6290 hc        1 MOL      0.064881
    120 H56         0.0580    1.2670    6.2970 hc        1 MOL      0.064881
    121 N11        -1.4200    0.6550    0.9840 n         1 MOL     -0.210607
    122 C40        -1.7790   -0.6250    0.2830 c3        1 MOL     -0.612383
    123 C41        -3.1680   -0.6930   -0.2460 c         1 MOL      0.679153
    124 O16        -3.4040   -1.4620   -1.2200 o         1 MOL     -0.599551
    125 C42        -1.5710   -1.7460    1.2620 c3        1 MOL      0.359498
    126 O17        -1.9930   -1.4560    2.6010 oh        1 MOL     -0.603920
    127 H57        -2.0860    1.3110    1.3550 hn        1 MOL      0.263981
    128 H58        -1.0930   -0.6240   -0.5570 h1        1 MOL      0.296047
    129 H59        -0.5030   -1.9570    1.3400 h1        1 MOL      0.021052
    130 H60        -2.0570   -2.6710    0.9740 h1        1 MOL      0.021052
    131 H61        -1.4030   -1.9200    3.1920 ho        1 MOL      0.364318
    132 N12        -4.0300    0.1550    0.2090 n         1 MOL     -0.333028
    133 C43        -5.4420    0.2530   -0.1950 c3        1 MOL     -0.061054
    134 C44        -5.5130    0.7860   -1.6680 c         1 MOL      0.704204
    135 O18        -4.5920    1.4620   -2.0960 o         1 MOL     -0.600320
    136 C45        -6.2290    1.0760    0.8590 c3        1 MOL     -0.145230
    137 H62        -3.6290    0.8680    0.8010 hn        1 MOL      0.256522
    138 H63        -5.9240   -0.6940    0.0310 h1        1 MOL      0.119440
    139 H64        -7.2930    0.8530    0.7660 hc        1 MOL      0.061885
    140 H65        -5.8950    0.8240    1.8650 hc        1 MOL      0.061885
    141 H66        -6.1310    2.1540    0.7270 hc        1 MOL      0.061885
    142 N13        -6.6030    0.6610   -2.3900 n         1 MOL     -0.603857
    143 C46        -7.8030   -0.1370   -2.0700 c3        1 MOL      0.337208
    144 C47        -9.1080    0.5240   -2.6100 c         1 MOL      0.398819
    145 O19        -9.1250    1.1810   -3.6850 o         1 MOL     -0.536354
    146 C48        -7.6210   -1.5840   -2.4820 c3        1 MOL     -0.386295
    147 H67        -6.5630    1.1480   -3.2830 hn        1 MOL      0.317985
    148 H68        -7.8810   -0.1430   -0.9830 h1        1 MOL     -0.024531
    149 H69        -8.5350   -2.1540   -2.3100 hc        1 MOL      0.110047
    150 H70        -7.5200   -1.5790   -3.5690 hc        1 MOL      0.110047
    151 H71        -6.6930   -1.9250   -2.0290 hc        1 MOL      0.110047
    152 N14       -10.2380    0.4870   -1.9030 n         1 MOL     -0.330711
    153 C49       -10.3960    0.2980   -0.4600 c3        1 MOL     -0.184526
    154 C50       -10.0230    1.5980    0.3250 c         1 MOL      0.542107
    155 O20        -9.4760    1.4880    1.4560 o         1 MOL     -0.531395
    156 C51       -11.8930    0.0300   -0.2820 c3        1 MOL     -0.030565
    157 C52       -12.0250   -0.7010    1.0580 c3        1 MOL     -0.070453
    158 C53       -13.1220   -1.8130    0.9820 c         1 MOL      0.686235
    159 O21       -14.2530   -1.6250    1.4900 o         1 MOL     -0.659294
    160 O22       -12.8170   -2.8760    0.4440 o         1 MOL     -0.659294
    161 H72       -11.0190    0.9070   -2.3830 hn        1 MOL      0.263537
    162 H73        -9.8030   -0.5600   -0.1520 h1        1 MOL      0.185497
    163 H74       -12.2840   -0.6720   -1.0170 hc        1 MOL      0.039328
    164 H75       -12.4270    0.9660   -0.1460 hc        1 MOL      0.039328
    165 H76       -12.4730   -0.0200    1.7840 hc        1 MOL     -0.003696
    166 H77       -11.0830   -1.0510    1.4620 hc        1 MOL     -0.003696
    167 N15       -10.0930    2.8460   -0.1790 n         1 MOL     -0.320106
    168 C54        -9.3140    4.0050    0.3470 c3        1 MOL     -0.173370
    169 H78        -9.3140    3.9770    1.4370 h1        1 MOL      0.098318
    170 H79        -8.2880    3.9490   -0.0160 h1        1 MOL      0.098318
    171 H80        -9.7700    4.9340    0.0070 h1        1 MOL      0.098318
    172 H81       -10.6060    2.9610   -1.0310 hn        1 MOL      0.260394
    173 Ca1         2.5260    0.2620   -1.1130 Ca        1 MOL      1.757579
    174 O23         0.3010    1.2470   -2.3810 oh        1 MOL     -0.839610
    175 H82        -0.1420    1.9730   -1.9340 ho        1 MOL      0.413629
    176 H83        -0.2500    1.0750   -3.1490 ho        1 MOL      0.413629
    177 O24         0.6590   -1.6960   -2.0500 oh        1 MOL     -0.839610
    178 H84        -0.2060   -1.7530   -2.4430 ho        1 MOL      0.413629
    179 H85         1.2210   -2.2250   -2.6100 ho        1 MOL      0.413629
    180 O25         3.0410    2.2590   -2.9300 oh        1 MOL     -0.839610
    181 H86         3.1980    1.9110   -3.8090 ho        1 MOL      0.413629
    182 H87         2.6160    3.1050   -3.0730 ho        1 MOL      0.413629
@<TRIPOS>BOND
     1    1    2 1   
     2    1    4 1   
     3    1    5 1   
     4    1    6 1   
     5    2    3 2   
     6    2    7 1   
     7    7    8 1   
     8    7   15 1   
     9    8    9 1   
    10    8   11 1   
    11    8   16 1   
    12    9   10 2   
    13    9   19 1   
    14   11   12 1   
    15   11   17 1   
    16   11   18 1   
    17   12   13 1   
    18   12   14 1   
    19   19   20 1   
    20   19   28 1   
    21   20   21 1   
    22   20   23 1   
    23   20   29 1   
    24   21   22 2   
    25   21   41 1   
    26   23   24 1   
    27   23   30 1   
    28   23   31 1   
    29   24   25 1   
    30   24   32 1   
    31   24   33 1   
    32   25   26 1   
    33   25   34 1   
    34   25   35 1   
    35   26   27 1   
    36   26   36 1   
    37   26   37 1   
    38   27   38 1   
    39   27   39 1   
    40   27   40 1   
    41   41   42 1   
    42   41   49 1   
    43   42   43 1   
    44   42   45 1   
    45   42   50 1   
    46   43   44 2   
    47   43   53 1   
    48   45   46 1   
    49   45   51 1   
    50   45   52 1   
    51   46   47 1   
    52   46   48 1   
    53   53   54 1   
    54   53   57 1   
    55   54   55 1   
    56   54   58 1   
    57   54   59 1   
    58   55   56 2   
    59   55   60 1   
    60   60   61 1   
    61   60   68 1   
    62   61   62 1   
    63   61   64 1   
    64   61   69 1   
    65   62   63 2   
    66   62   74 1   
    67   64   65 1   
    68   64   70 1   
    69   64   71 1   
    70   65   66 1   
    71   65   67 2   
    72   66   72 1   
    73   66   73 1   
    74   74   75 1   
    75   74   78 1   
    76   75   76 1   
    77   75   79 1   
    78   75   80 1   
    79   76   77 2   
    80   76   81 1   
    81   81   82 1   
    82   81   93 1   
    83   82   83 1   
    84   82   85 1   
    85   82   94 1   
    86   83   84 2   
    87   83  102 1   
    88   85   86 1   
    89   85   95 1   
    90   85   96 1   
    91   86   87 ar  
    92   86   88 ar  
    93   87   89 ar  
    94   87   97 1   
    95   88   90 ar  
    96   88   98 1   
    97   89   91 ar  
    98   89   99 1   
    99   90   91 ar  
   100   90  100 1   
   101   91   92 1   
   102   92  101 1   
   103  102  103 1   
   104  102  110 1   
   105  103  104 1   
   106  103  106 1   
   107  103  111 1   
   108  104  105 2   
   109  104  121 1   
   110  106  107 1   
   111  106  108 1   
   112  106  112 1   
   113  107  109 1   
   114  107  113 1   
   115  107  114 1   
   116  108  115 1   
   117  108  116 1   
   118  108  117 1   
   119  109  118 1   
   120  109  119 1   
   121  109  120 1   
   122  121  122 1   
   123  121  127 1   
   124  122  123 1   
   125  122  125 1   
   126  122  128 1   
   127  123  124 2   
   128  123  132 1   
   129  125  126 1   
   130  125  129 1   
   131  125  130 1   
   132  126  131 1   
   133  132  133 1   
   134  132  137 1   
   135  133  134 1   
   136  133  136 1   
   137  133  138 1   
   138  134  135 2   
   139  134  142 1   
   140  136  139 1   
   141  136  140 1   
   142  136  141 1   
   143  142  143 1   
   144  142  147 1   
   145  143  144 1   
   146  143  146 1   
   147  143  148 1   
   148  144  145 2   
   149  144  152 1   
   150  146  149 1   
   151  146  150 1   
   152  146  151 1   
   153  152  153 1   
   154  152  161 1   
   155  153  154 1   
   156  153  156 1   
   157  153  162 1   
   158  154  155 2   
   159  154  167 1   
   160  156  157 1   
   161  156  163 1   
   162  156  164 1   
   163  157  158 1   
   164  157  165 1   
   165  157  166 1   
   166  158  159 1   
   167  158  160 1   
   168  167  168 1   
   169  167  172 1   
   170  168  169 1   
   171  168  170 1   
   172  168  171 1   
   173  174  175 1   
   174  174  176 1   
   175  177  178 1   
   176  177  179 1   
   177  180  181 1   
   178  180  182 1   
@<TRIPOS>SUBSTRUCTURE
     1 MOL         1 TEMP              0 ****  ****    0 ROOT
