@<TRIPOS>MOLECULE
MOL
  182   178     1     0     0
SMALL
resp


@<TRIPOS>ATOM
      1 C1          1.4070   -4.7260    5.5720 c3        1 MOL     -0.378106
      2 C2          1.2930   -4.3180    4.1190 c         1 MOL      0.734719
      3 O1          0.2010   -4.3600    3.5070 o         1 MOL     -0.625038
      4 H1          0.4840   -5.2170    5.8840 hc        1 MOL      0.110109
      5 H2          2.2430   -5.4150    5.6920 hc        1 MOL      0.110109
      6 H3          1.5740   -3.8420    6.1870 hc        1 MOL      0.110109
      7 N1          2.4160   -3.8930    3.5320 n         1 MOL     -0.564924
      8 C3          2.5770   -3.2840    2.2430 c3        1 MOL     -0.068196
      9 C4          2.9990   -4.3830    1.1780 c         1 MOL      0.617719
     10 O2          3.9250   -5.1390    1.3820 o         1 MOL     -0.516515
     11 C5          3.7170   -2.2780    2.4540 c3        1 MOL      0.012283
     12 C6          3.7650   -1.3660    1.1810 c         1 MOL      0.414801
     13 O3          4.2480   -0.2390    1.3510 o         1 MOL     -0.625856
     14 O4          3.5720   -1.7770   -0.0040 o         1 MOL     -0.625856
     15 H4          3.2530   -4.0110    4.0750 hn        1 MOL      0.315641
     16 H5          1.6180   -2.8140    2.0070 h1        1 MOL      0.091434
     17 H6          4.6360   -2.8660    2.4540 hc        1 MOL      0.043929
     18 H7          3.6100   -1.7040    3.3750 hc        1 MOL      0.043929
     19 N2          2.2870   -4.3380   -0.0070 n         1 MOL     -0.363439
     20 C7          2.4300   -5.3340   -1.1120 c3        1 MOL     -0.069948
     21 C8          3.5270   -4.9960   -2.2300 c         1 MOL      0.529283
     22 O5          3.6360   -5.7170   -3.2020 o         1 MOL     -0.541464
     23 C9          1.0740   -5.5420   -1.7050 c3        1 MOL      0.080386
     24 C10         0.1560   -6.4220   -0.8530 c3        1 MOL      0.016362
     25 C11        -1.2550   -6.4950   -1.4190 c3        1 MOL      0.120873
     26 C12        -2.3390   -7.1020   -0.4900 c3        1 MOL     -0.100919
     27 N3         -3.6380   -6.7910   -1.0870 n4        1 MOL     -0.122636
     28 H8          1.7750   -3.4800   -0.1140 hn        1 MOL      0.200026
     29 H9          2.7540   -6.3050   -0.7280 h1        1 MOL      0.113210
     30 H10         1.1080   -5.9710   -2.7000 hc        1 MOL     -0.013994
     31 H11         0.6470   -4.5550   -1.8950 hc        1 MOL     -0.013994
     32 H12         0.0560   -5.9860    0.1360 hc        1 MOL      0.007502
     33 H13         0.6150   -7.4130   -0.7730 hc        1 MOL      0.007502
     34 H14        -1.2460   -7.0050   -2.3810 hc        1 MOL     -0.013486
     35 H15        -1.6240   -5.4870   -1.5750 hc        1 MOL     -0.013486
     36 H16        -2.2170   -6.7210    0.5240 hx        1 MOL      0.097745
     37 H17        -2.1650   -8.1730   -0.5670 hx        1 MOL      0.097745
     38 H18        -3.8650   -5.8430   -0.7980 hn        1 MOL      0.238230
     39 H19        -3.6570   -6.8410   -2.0920 hn        1 MOL      0.238230
     40 H20        -4.4040   -7.3180   -0.6960 hn        1 MOL      0.238230
     41 N4          4.2750   -3.9160   -1.9310 n         1 MOL     -0.225332
     42 C13         5.4730   -3.5600   -2.6420 c3        1 MOL      0.195094
     43 C14         6.6340   -3.1820   -1.6490 c         1 MOL      0.308259
     44 O6          7.7700   -3.6450   -1.8610 o         1 MOL     -0.521913
     45 C15         5.2390   -2.3330   -3.5720 c3        1 MOL     -0.306295
     46 C16         4.3750   -1.2120   -2.9900 c         1 MOL      0.858701
     47 O7          4.9200   -0.2640   -2.4210 o         1 MOL     -0.765468
     48 O8          3.1350   -1.1230   -3.2680 o         1 MOL     -0.765468
     49 H21         3.9460   -3.4020   -1.1230 hn        1 MOL     -0.102615
     50 H22         5.8740   -4.3800   -3.2440 h1        1 MOL      0.071386
     51 H23         4.6480   -2.7010   -4.4100 hc        1 MOL      0.074415
     52 H24         6.2380   -1.9900   -3.8610 hc        1 MOL      0.074415
     53 N5          6.3430   -2.4500   -0.5710 n         1 MOL     -0.119024
     54 C17         7.2890   -2.0780    0.5060 c3        1 MOL     -0.272998
     55 C18         7.7250   -0.6710    0.6420 c         1 MOL      0.569175
     56 O9          8.5580   -0.3400    1.4990 o         1 MOL     -0.569819
     57 H25         5.4100   -2.0630   -0.5680 hn        1 MOL      0.384204
     58 H26         8.1990   -2.6670    0.4010 h1        1 MOL      0.131959
     59 H27         6.8280   -2.3770    1.4520 h1        1 MOL      0.131959
     60 N6          7.0760    0.2230   -0.1320 n         1 MOL     -0.231497
     61 C19         7.3810    1.6110   -0.2380 c3        1 MOL      0.101962
     62 C20         6.0790    2.5370   -0.3060 c         1 MOL      0.377861
     63 O10         5.0010    2.1230   -0.8170 o         1 MOL     -0.400571
     64 C21         8.2420    1.6580   -1.5670 c3        1 MOL     -0.432482
     65 C22         8.8130    3.0300   -1.8130 c         1 MOL      0.680807
     66 N7         10.0180    3.3600   -1.4270 n         1 MOL     -0.774729
     67 O11         8.1360    3.8910   -2.3840 o         1 MOL     -0.577870
     68 H28         6.4010   -0.0980   -0.8120 hn        1 MOL      0.125008
     69 H29         8.0970    1.9530    0.5150 h1        1 MOL      0.045977
     70 H30         7.6800    1.2270   -2.4030 hc        1 MOL      0.150370
     71 H31         9.1220    1.0540   -1.3150 hc        1 MOL      0.150370
     72 H32        10.6160    2.5780   -1.2260 hn        1 MOL      0.367514
     73 H33        10.3890    4.2880   -1.5280 hn        1 MOL      0.367514
     74 N8          6.1940    3.7790    0.1640 n         1 MOL     -0.289808
     75 C23         5.2590    4.8590   -0.0410 c3        1 MOL     -0.138966
     76 C24         4.0040    4.7390    0.8070 c         1 MOL      0.567156
     77 O12         4.1250    4.7220    2.0230 o         1 MOL     -0.505261
     78 H34         7.0360    3.9840    0.6890 hn        1 MOL      0.294870
     79 H35         4.9830    5.0390   -1.0790 h1        1 MOL      0.104396
     80 H36         5.7530    5.7980    0.1890 h1        1 MOL      0.104396
     81 N9          2.7750    4.6370    0.2420 n         1 MOL     -0.494325
     82 C25         1.6160    4.3080    1.0710 c3        1 MOL      0.006531
     83 C26         1.6320    2.9380    1.5390 c         1 MOL      0.516023
     84 O13         2.4870    2.1250    1.1490 o         1 MOL     -0.480916
     85 C27         0.3020    4.7650    0.3020 c3        1 MOL     -0.348065
     86 C28         0.1280    6.2820    0.0870 ca        1 MOL      0.161831
     87 C29        -0.1560    7.1870    1.1280 ca        1 MOL     -0.130795
     88 C30         0.0590    6.8320   -1.1730 ca        1 MOL     -0.130795
     89 C31        -0.5010    8.5270    0.9480 ca        1 MOL     -0.317260
     90 C32        -0.1950    8.2580   -1.4110 ca        1 MOL     -0.317260
     91 C33        -0.5220    9.1060   -0.3590 ca        1 MOL      0.376842
     92 O14        -0.8030   10.4360   -0.6200 oh        1 MOL     -0.467633
     93 H37         2.7180    4.6610   -0.7610 hn        1 MOL      0.287085
     94 H38         1.6420    4.9740    1.9290 h1        1 MOL      0.106428
     95 H39        -0.5560    4.3950    0.8670 hc        1 MOL      0.112794
     96 H40         0.3220    4.3370   -0.6970 hc        1 MOL      0.112794
     97 H41        -0.3320    6.8040    2.1260 ha        1 MOL      0.116222
     98 H42         0.2690    6.1910   -2.0130 ha        1 MOL      0.116222
     99 H43        -0.5750    9.1840    1.8020 ha        1 MOL      0.173366
    100 H44        -0.0670    8.6160   -2.4140 ha        1 MOL      0.173366
    101 H45        -1.2030   10.7880    0.1750 ho        1 MOL      0.358690
    102 N10         0.6080    2.5590    2.3090 n         1 MOL     -0.383368
    103 C34         0.1040    1.2630    2.7870 c3        1 MOL     -0.046178
    104 C35        -0.1430    0.4610    1.5120 c         1 MOL      0.200698
    105 O15         0.6680    0.2180    0.5900 o         1 MOL     -0.258816
    106 C36         1.0690    0.7080    3.8320 c3        1 MOL      0.112207
    107 C37         0.6270   -0.6530    4.2880 c3        1 MOL     -0.080608
    108 C38         1.2100    1.6620    5.1130 c3        1 MOL     -0.373016
    109 C39        -0.7060   -0.6960    5.0360 c3        1 MOL     -0.187286
    110 H46        -0.0300    3.2400    2.6960 hn        1 MOL      0.274489
    111 H47        -0.8270    1.5090    3.3020 h1        1 MOL      0.099115
    112 H48         1.9980    0.7390    3.2640 hc        1 MOL      0.079285
    113 H49         1.3910   -0.9980    4.9840 hc        1 MOL      0.066034
    114 H50         0.7230   -1.3750    3.4720 hc        1 MOL      0.066034
    115 H51         1.7660    1.1980    5.9300 hc        1 MOL      0.108340
    116 H52         1.7530    2.5650    4.8540 hc        1 MOL      0.108340
    117 H53         0.2170    1.9270    5.4710 hc        1 MOL      0.108340
    118 H54        -1.5160   -0.3120    4.4060 hc        1 MOL      0.050981
    119 H55        -0.8930   -1.7440    5.2660 hc        1 MOL      0.050981
    120 H56        -0.6680   -0.0420    5.8990 hc        1 MOL      0.050981
    121 N11        -1.3540   -0.1410    1.5070 n         1 MOL     -0.336223
    122 C40        -1.7590   -1.0940    0.4290 c3        1 MOL     -0.085305
    123 C41        -3.2580   -1.0820    0.0590 c         1 MOL      0.766699
    124 O16        -3.6870   -1.7320   -0.8660 o         1 MOL     -0.608378
    125 C42        -1.2550   -2.4610    1.0080 c3        1 MOL      0.328679
    126 O17        -1.6400   -2.7780    2.3340 oh        1 MOL     -0.658055
    127 H57        -1.9630    0.0310    2.2980 hn        1 MOL      0.292630
    128 H58        -1.2760   -0.8370   -0.5100 h1        1 MOL      0.073266
    129 H59        -0.1630   -2.4620    1.0100 h1        1 MOL     -0.040777
    130 H60        -1.5780   -3.2410    0.3180 h1        1 MOL     -0.040777
    131 H61        -0.9410   -3.2010    2.8300 ho        1 MOL      0.439432
    132 N12        -4.0480   -0.1720    0.6740 n         1 MOL     -0.665286
    133 C43        -5.3940    0.0340    0.1910 c3        1 MOL      0.164564
    134 C44        -5.4110    0.7690   -1.1860 c         1 MOL      0.666488
    135 O18        -4.5250    1.4670   -1.6040 o         1 MOL     -0.582508
    136 C45        -6.2650    0.7450    1.2570 c3        1 MOL     -0.352746
    137 H62        -3.7210    0.3570    1.4730 hn        1 MOL      0.317683
    138 H63        -5.8600   -0.9330    0.0110 h1        1 MOL      0.080113
    139 H64        -6.4250    0.0510    2.0820 hc        1 MOL      0.113488
    140 H65        -5.6880    1.5720    1.6580 hc        1 MOL      0.113488
    141 H66        -7.1660    1.0210    0.7160 hc        1 MOL      0.113488
    142 N13        -6.4510    0.5470   -2.0130 n         1 MOL     -0.701316
    143 C46        -7.7330   -0.1610   -1.8510 c3        1 MOL      0.485097
    144 C47        -8.8990    0.6160   -2.5210 c         1 MOL      0.300368
    145 O19        -8.5790    1.2860   -3.5080 o         1 MOL     -0.523866
    146 C48        -7.6830   -1.5470   -2.5010 c3        1 MOL     -0.243463
    147 H67        -6.2570    0.8530   -2.9510 hn        1 MOL      0.346013
    148 H68        -7.8990   -0.2280   -0.7770 h1        1 MOL     -0.062121
    149 H69        -8.6810   -1.9860   -2.4080 hc        1 MOL      0.060986
    150 H70        -7.4020   -1.4920   -3.5570 hc        1 MOL      0.060986
    151 H71        -7.0830   -2.2570   -1.9350 hc        1 MOL      0.060986
    152 N14       -10.1110    0.4490   -2.1490 n         1 MOL     -0.307497
    153 C49       -10.6750    0.0600   -0.8260 c3        1 MOL     -0.187294
    154 C50       -10.0730    0.9140    0.3570 c         1 MOL      0.399133
    155 O20        -9.6540    0.3240    1.4200 o         1 MOL     -0.526045
    156 C51       -12.2020    0.3020   -0.8770 c3        1 MOL      0.006044
    157 C52       -12.8510   -0.5300    0.2860 c3        1 MOL     -0.096055
    158 C53       -14.2260   -0.9510   -0.1300 c         1 MOL      0.649806
    159 O21       -14.4110   -2.1860   -0.3440 o         1 MOL     -0.670126
    160 O22       -15.1090   -0.0550   -0.1180 o         1 MOL     -0.670126
    161 H72       -10.6960    1.0290   -2.7360 hn        1 MOL      0.270238
    162 H73       -10.4200   -1.0020   -0.7290 h1        1 MOL      0.164067
    163 H74       -12.6170   -0.0560   -1.8160 hc        1 MOL      0.035934
    164 H75       -12.5260    1.3320   -0.7350 hc        1 MOL      0.035934
    165 H76       -12.8640    0.1190    1.1580 hc        1 MOL      0.025982
    166 H77       -12.2300   -1.4140    0.4550 hc        1 MOL      0.025982
    167 N15        -9.9880    2.2630    0.2790 n         1 MOL     -0.143672
    168 C54        -9.5010    3.1050    1.3660 c3        1 MOL     -0.262088
    169 H78       -10.1460    3.9780    1.4650 h1        1 MOL      0.112405
    170 H79        -9.5110    2.5400    2.2980 h1        1 MOL      0.112405
    171 H80        -8.4830    3.4280    1.1480 h1        1 MOL      0.112405
    172 H81       -10.3300    2.7360   -0.5470 hn        1 MOL      0.234351
    173 Ca1         2.7470    0.5180   -1.0710 Ca        1 MOL      1.702092
    174 O23         0.7870   -1.7150   -1.6550 oh        1 MOL     -0.887723
    175 H82         1.3040   -2.1480   -2.3330 ho        1 MOL      0.434678
    176 H83        -0.0260   -1.4750   -2.1060 ho        1 MOL      0.434678
    177 O24         3.2480    2.3500   -2.9650 oh        1 MOL     -0.887723
    178 H84         3.9880    2.9470   -3.0560 ho        1 MOL      0.434678
    179 H85         2.9210    2.2430   -3.8650 ho        1 MOL      0.434678
    180 O25         0.5120    1.3160   -2.2790 oh        1 MOL     -0.887723
    181 H86        -0.3380    1.5360   -1.9060 ho        1 MOL      0.434678
    182 H87         0.3950    1.4030   -3.2280 ho        1 MOL      0.434678
@<TRIPOS>BOND
     1    1    2 1   
     2    1    4 1   
     3    1    5 1   
     4    1    6 1   
     5    2    3 2   
     6    2    7 1   
     7    7    8 1   
     8    7   15 1   
     9    8    9 1   
    10    8   11 1   
    11    8   16 1   
    12    9   10 2   
    13    9   19 1   
    14   11   12 1   
    15   11   17 1   
    16   11   18 1   
    17   12   13 1   
    18   12   14 1   
    19   19   20 1   
    20   19   28 1   
    21   20   21 1   
    22   20   23 1   
    23   20   29 1   
    24   21   22 2   
    25   21   41 1   
    26   23   24 1   
    27   23   30 1   
    28   23   31 1   
    29   24   25 1   
    30   24   32 1   
    31   24   33 1   
    32   25   26 1   
    33   25   34 1   
    34   25   35 1   
    35   26   27 1   
    36   26   36 1   
    37   26   37 1   
    38   27   38 1   
    39   27   39 1   
    40   27   40 1   
    41   41   42 1   
    42   41   49 1   
    43   42   43 1   
    44   42   45 1   
    45   42   50 1   
    46   43   44 2   
    47   43   53 1   
    48   45   46 1   
    49   45   51 1   
    50   45   52 1   
    51   46   47 1   
    52   46   48 1   
    53   53   54 1   
    54   53   57 1   
    55   54   55 1   
    56   54   58 1   
    57   54   59 1   
    58   55   56 2   
    59   55   60 1   
    60   60   61 1   
    61   60   68 1   
    62   61   62 1   
    63   61   64 1   
    64   61   69 1   
    65   62   63 2   
    66   62   74 1   
    67   64   65 1   
    68   64   70 1   
    69   64   71 1   
    70   65   66 1   
    71   65   67 2   
    72   66   72 1   
    73   66   73 1   
    74   74   75 1   
    75   74   78 1   
    76   75   76 1   
    77   75   79 1   
    78   75   80 1   
    79   76   77 2   
    80   76   81 1   
    81   81   82 1   
    82   81   93 1   
    83   82   83 1   
    84   82   85 1   
    85   82   94 1   
    86   83   84 2   
    87   83  102 1   
    88   85   86 1   
    89   85   95 1   
    90   85   96 1   
    91   86   87 ar  
    92   86   88 ar  
    93   87   89 ar  
    94   87   97 1   
    95   88   90 ar  
    96   88   98 1   
    97   89   91 ar  
    98   89   99 1   
    99   90   91 ar  
   100   90  100 1   
   101   91   92 1   
   102   92  101 1   
   103  102  103 1   
   104  102  110 1   
   105  103  104 1   
   106  103  106 1   
   107  103  111 1   
   108  104  105 2   
   109  104  121 1   
   110  106  107 1   
   111  106  108 1   
   112  106  112 1   
   113  107  109 1   
   114  107  113 1   
   115  107  114 1   
   116  108  115 1   
   117  108  116 1   
   118  108  117 1   
   119  109  118 1   
   120  109  119 1   
   121  109  120 1   
   122  121  122 1   
   123  121  127 1   
   124  122  123 1   
   125  122  125 1   
   126  122  128 1   
   127  123  124 2   
   128  123  132 1   
   129  125  126 1   
   130  125  129 1   
   131  125  130 1   
   132  126  131 1   
   133  132  133 1   
   134  132  137 1   
   135  133  134 1   
   136  133  136 1   
   137  133  138 1   
   138  134  135 2   
   139  134  142 1   
   140  136  139 1   
   141  136  140 1   
   142  136  141 1   
   143  142  143 1   
   144  142  147 1   
   145  143  144 1   
   146  143  146 1   
   147  143  148 1   
   148  144  145 2   
   149  144  152 1   
   150  146  149 1   
   151  146  150 1   
   152  146  151 1   
   153  152  153 1   
   154  152  161 1   
   155  153  154 1   
   156  153  156 1   
   157  153  162 1   
   158  154  155 2   
   159  154  167 1   
   160  156  157 1   
   161  156  163 1   
   162  156  164 1   
   163  157  158 1   
   164  157  165 1   
   165  157  166 1   
   166  158  159 1   
   167  158  160 1   
   168  167  168 1   
   169  167  172 1   
   170  168  169 1   
   171  168  170 1   
   172  168  171 1   
   173  174  175 1   
   174  174  176 1   
   175  177  178 1   
   176  177  179 1   
   177  180  181 1   
   178  180  182 1   
@<TRIPOS>SUBSTRUCTURE
     1 MOL         1 TEMP              0 ****  ****    0 ROOT
