@<TRIPOS>MOLECULE
MOL
  178   175     1     0     0
SMALL
resp


@<TRIPOS>ATOM
      1 C1         -6.2500    7.9870    2.4580 c3        1 MOL     -0.479394
      2 C2         -7.0130    7.3130    1.2610 c         1 MOL      0.738079
      3 O1         -7.0790    7.8410    0.1980 o         1 MOL     -0.575506
      4 H1         -6.0190    7.2350    3.2110 hc        1 MOL      0.115810
      5 H2         -5.3250    8.4320    2.0950 hc        1 MOL      0.115810
      6 H3         -6.8780    8.7610    2.8990 hc        1 MOL      0.115810
      7 N1         -7.5210    6.0810    1.4910 n         1 MOL     -0.687989
      8 C3         -8.1170    5.2430    0.4760 c3        1 MOL      0.510241
      9 C4         -7.1930    4.1810   -0.0850 c         1 MOL      0.454272
     10 O2         -7.5410    2.9940   -0.1940 o         1 MOL     -0.532919
     11 C5         -9.4690    4.6270    1.0080 c3        1 MOL     -0.387115
     12 C6        -10.4020    4.2430   -0.0850 c         1 MOL      0.794308
     13 O3        -10.2810    4.6250   -1.2630 o         1 MOL     -0.745100
     14 O4        -11.3950    3.5750    0.1980 o         1 MOL     -0.745100
     15 H4         -7.4570    5.5810    2.3650 hn        1 MOL      0.310670
     16 H5         -8.3570    5.8500   -0.3950 h1        1 MOL     -0.034491
     17 H6         -9.9160    5.3960    1.6470 hc        1 MOL      0.051163
     18 H7         -9.2760    3.7640    1.6460 hc        1 MOL      0.051163
     19 N2         -6.0030    4.6260   -0.4600 n         1 MOL     -0.627729
     20 C7         -4.9860    3.6750   -1.0500 c3        1 MOL      0.347906
     21 C8         -4.3450    2.7280   -0.0400 c         1 MOL      0.493160
     22 O5         -3.6810    3.1440    0.9070 o         1 MOL     -0.574410
     23 C9         -3.8870    4.4520   -1.8160 c3        1 MOL     -0.400952
     24 H8         -5.7300    5.5830   -0.3490 hn        1 MOL      0.342114
     25 H9         -5.4170    3.0400   -1.8240 h1        1 MOL      0.049664
     26 H10        -3.4360    5.0650   -1.0390 hc        1 MOL      0.103738
     27 H11        -3.1660    3.7600   -2.2440 hc        1 MOL      0.103738
     28 H12        -4.3310    5.0440   -2.6260 hc        1 MOL      0.103738
     29 N3         -4.4290    1.4190   -0.1650 n         1 MOL     -0.341258
     30 C10        -5.2580    0.6360   -1.0480 c3        1 MOL     -0.015918
     31 C11        -5.4590   -0.7180   -0.5000 c         1 MOL      0.470592
     32 O6         -4.6730   -1.1260    0.3710 o         1 MOL     -0.487246
     33 C12        -4.4250    0.3710   -2.3650 c3        1 MOL     -0.272184
     34 C13        -2.9970   -0.1600   -2.3270 c         1 MOL      0.759654
     35 O7         -2.4520   -0.3180   -3.4960 o         1 MOL     -0.704521
     36 O8         -2.3360   -0.4280   -1.2380 o         1 MOL     -0.704521
     37 H13        -4.0450    0.8370    0.5710 hn        1 MOL      0.269198
     38 H14        -6.2420    1.0240   -1.3330 h1        1 MOL      0.076491
     39 H15        -4.4930    1.2980   -2.9210 hc        1 MOL      0.066240
     40 H16        -5.0250   -0.3570   -2.9130 hc        1 MOL      0.066240
     41 N4         -6.5270   -1.3900   -1.0220 n         1 MOL     -0.413012
     42 C14        -6.9980   -2.7010   -0.6180 c3        1 MOL      0.068590
     43 C15        -6.8280   -3.6990   -1.7260 c         1 MOL      0.515655
     44 O9         -7.7480   -4.1760   -2.3670 o         1 MOL     -0.566874
     45 H17        -7.1530   -0.8330   -1.5810 hn        1 MOL      0.324714
     46 H18        -8.0710   -2.6920   -0.4070 h1        1 MOL      0.041456
     47 H19        -6.4330   -3.0780    0.2440 h1        1 MOL      0.041456
     48 N5         -5.6550   -4.1320   -2.2130 n         1 MOL     -0.508303
     49 C16        -4.3350   -3.9840   -1.5340 c3        1 MOL      0.166933
     50 C17        -4.2810   -4.8680   -0.3290 c         1 MOL      0.488109
     51 O10        -4.3630   -6.0840   -0.5580 o         1 MOL     -0.556894
     52 C18        -3.3410   -4.3990   -2.6350 c3        1 MOL      0.008366
     53 C19        -1.8670   -4.2300   -2.3300 c         1 MOL      0.489705
     54 N6         -1.0120   -4.7280   -3.2160 n         1 MOL     -0.713837
     55 O11        -1.4610   -3.6810   -1.3240 o         1 MOL     -0.547203
     56 H20        -5.7900   -4.8120   -2.9390 hn        1 MOL      0.309191
     57 H21        -4.1420   -2.9460   -1.2320 h1        1 MOL     -0.008363
     58 H22        -3.4790   -3.8410   -3.5600 hc        1 MOL      0.012675
     59 H23        -3.5940   -5.4380   -2.8580 hc        1 MOL      0.012675
     60 H24        -1.2980   -5.3500   -3.9630 hn        1 MOL      0.341841
     61 H25        -0.0510   -4.4680   -3.0880 hn        1 MOL      0.341841
     62 N7         -3.9430   -4.2600    0.8210 n         1 MOL     -0.168826
     63 C20        -3.9780   -4.9430    2.1820 c3        1 MOL     -0.319978
     64 C21        -2.5990   -5.3560    2.5700 c         1 MOL      0.623706
     65 O12        -2.4140   -6.1210    3.4860 o         1 MOL     -0.601806
     66 H26        -3.7280   -3.2780    0.9330 hn        1 MOL      0.239274
     67 H27        -4.5960   -5.8210    2.0260 h1        1 MOL      0.135509
     68 H28        -4.3500   -4.1650    2.8450 h1        1 MOL      0.135509
     69 N8         -1.5250   -5.0760    1.8440 n         1 MOL     -0.259201
     70 C22        -0.0650   -5.3260    2.0000 c3        1 MOL     -0.048408
     71 C23         0.8140   -4.0680    1.8870 c         1 MOL      0.329666
     72 O13         0.5320   -3.0760    1.2050 o         1 MOL     -0.473322
     73 C24         0.4500   -6.3040    0.8970 c3        1 MOL      0.321445
     74 C25        -0.1810   -7.7640    1.1440 c3        1 MOL     -0.465169
     75 O14         0.2590   -5.9860   -0.4840 oh        1 MOL     -0.491121
     76 H29        -1.7430   -4.4160    1.1050 hn        1 MOL      0.197278
     77 H30         0.1270   -5.6810    3.0130 h1        1 MOL      0.074323
     78 H31         1.5100   -6.4490    1.1120 h1        1 MOL     -0.002339
     79 H32         0.8190   -5.2680   -0.7780 ho        1 MOL      0.261012
     80 H33        -1.1940   -7.6600    0.7610 hc        1 MOL      0.123253
     81 H34         0.3570   -8.5760    0.6810 hc        1 MOL      0.123253
     82 H35        -0.1610   -7.9440    2.2250 hc        1 MOL      0.123253
     83 N9          1.9130   -4.0820    2.6500 n         1 MOL     -0.155777
     84 C26         3.0430   -3.0720    2.7940 c3        1 MOL     -0.214522
     85 C27         4.0730   -3.2650    1.6440 c         1 MOL      0.492859
     86 O15         4.7670   -4.2600    1.6070 o         1 MOL     -0.564765
     87 C28         3.7090   -3.2040    4.1700 c3        1 MOL      0.070433
     88 C29         4.8780   -2.1850    4.3010 c3        1 MOL      0.076657
     89 C30         2.6360   -3.1710    5.2190 c3        1 MOL     -0.156485
     90 C31         4.4460   -0.8090    4.7690 c3        1 MOL     -0.100801
     91 H36         2.1450   -5.0010    2.9930 hn        1 MOL      0.213329
     92 H37         2.6140   -2.0890    2.6220 h1        1 MOL      0.158219
     93 H38         4.1880   -4.1810    4.3370 hc        1 MOL      0.009203
     94 H39         5.4730   -2.0810    3.3880 hc        1 MOL     -0.004101
     95 H40         5.6160   -2.5460    5.0120 hc        1 MOL     -0.004101
     96 H41         3.0680   -3.2190    6.2280 hc        1 MOL      0.039525
     97 H42         2.0820   -2.2380    5.1950 hc        1 MOL      0.039525
     98 H43         1.8620   -3.9320    5.2100 hc        1 MOL      0.039525
     99 H44         3.9460   -0.9610    5.7320 hc        1 MOL      0.014595
    100 H45         5.3560   -0.2160    4.8910 hc        1 MOL      0.014595
    101 H46         3.8050   -0.3090    4.0450 hc        1 MOL      0.014595
    102 N10         4.2650   -2.3600    0.6820 n         1 MOL     -0.341656
    103 C32         4.9820   -2.6810   -0.5620 c3        1 MOL      0.214090
    104 C33         5.4850   -1.3980   -1.2430 c         1 MOL      0.434205
    105 O16         5.4730   -1.3020   -2.4660 o         1 MOL     -0.503278
    106 C34         4.0310   -3.4390   -1.4660 c3        1 MOL     -0.267636
    107 C35         2.5710   -2.9480   -1.6520 c         1 MOL      0.668259
    108 O17         2.3830   -1.7920   -2.0730 o         1 MOL     -0.626021
    109 O18         1.5570   -3.6850   -1.4230 o         1 MOL     -0.626021
    110 H47         3.5450   -1.6560    0.6490 hn        1 MOL      0.234608
    111 H48         5.8630   -3.3080   -0.4180 h1        1 MOL      0.042746
    112 H49         4.0270   -4.3710   -0.9130 hc        1 MOL      0.061740
    113 H50         4.4570   -3.6240   -2.4510 hc        1 MOL      0.061740
    114 N11         5.9810   -0.4590   -0.4320 n         1 MOL     -0.552603
    115 C36         6.6850    0.7150   -0.9130 c3        1 MOL      0.527856
    116 C37         6.4040    2.0410   -0.1140 c         1 MOL      0.390095
    117 O19         6.1050    1.9330    1.0510 o         1 MOL     -0.517195
    118 C38         8.2150    0.4560   -0.9940 c3        1 MOL     -0.331765
    119 C39         8.9150    1.3980   -1.9460 ca        1 MOL      0.113335
    120 C40         9.5910    2.5320   -1.4650 ca        1 MOL     -0.155485
    121 C41         8.9180    1.1300   -3.3520 ca        1 MOL     -0.155485
    122 C42        10.0370    3.5790   -2.3230 ca        1 MOL     -0.154191
    123 C43         9.4520    2.0880   -4.2600 ca        1 MOL     -0.154191
    124 C44         9.9320    3.3160   -3.7050 ca        1 MOL     -0.085914
    125 H51         5.7860   -0.6100    0.5470 hn        1 MOL      0.235758
    126 H52         6.2950    0.9310   -1.9120 h1        1 MOL     -0.030852
    127 H53         8.4760   -0.5450   -1.3200 hc        1 MOL      0.095298
    128 H54         8.6360    0.6410   -0.0160 hc        1 MOL      0.095298
    129 H55         9.6730    2.5840   -0.3930 ha        1 MOL      0.121180
    130 H56         8.2860    0.3380   -3.7240 ha        1 MOL      0.121180
    131 H57        10.5380    4.4830   -1.9940 ha        1 MOL      0.132703
    132 H58         9.3930    1.8770   -5.3170 ha        1 MOL      0.132703
    133 H59        10.3660    4.0160   -4.4100 ha        1 MOL      0.087764
    134 N12         6.4030    3.2460   -0.7520 n         1 MOL     -0.063189
    135 C45         6.3610    4.5330   -0.1130 c3        1 MOL     -0.274168
    136 C46         4.9510    4.7990    0.4910 c         1 MOL      0.718097
    137 O20         4.8060    5.8960    1.0500 o         1 MOL     -0.601756
    138 C47         6.8970    5.5340   -1.1870 c3        1 MOL     -0.002942
    139 C48         6.3460    4.8590   -2.4700 c3        1 MOL      0.042870
    140 C49         6.2740    3.3640   -2.1840 c3        1 MOL     -0.439098
    141 H60         7.1110    4.5220    0.6820 h1        1 MOL      0.122058
    142 H61         6.6040    6.5810   -1.1250 hc        1 MOL      0.039672
    143 H62         7.9850    5.4650   -1.2580 hc        1 MOL      0.039672
    144 H63         5.3860    5.3520   -2.6230 hc        1 MOL      0.036687
    145 H64         6.9450    5.1180   -3.3400 hc        1 MOL      0.036687
    146 H65         5.3740    2.8770   -2.5830 h1        1 MOL      0.174680
    147 H66         7.1590    2.8200   -2.5060 h1        1 MOL      0.174680
    148 N13         3.9900    3.8990    0.5870 n         1 MOL     -0.395737
    149 C50         2.6760    4.1350    1.2450 c3        1 MOL     -0.361617
    150 C51         2.8150    4.4550    2.7890 c         1 MOL      0.560581
    151 O21         1.8320    4.8200    3.3740 o         1 MOL     -0.513127
    152 C52         1.7390    2.8950    1.1420 c3        1 MOL      0.129064
    153 C53         2.2980    1.6360    1.6620 c3        1 MOL      0.064246
    154 C54         1.5180    0.4030    1.2030 c         1 MOL      0.599154
    155 O22         2.0910   -0.5290    0.6080 o         1 MOL     -0.713700
    156 O23         0.2920    0.4860    1.0660 o         1 MOL     -0.713700
    157 H67         4.2430    2.9460    0.3330 hn        1 MOL      0.270849
    158 H68         2.2420    4.9380    0.6540 h1        1 MOL      0.185573
    159 H69         1.4640    2.7630    0.0970 hc        1 MOL      0.030667
    160 H70         0.7710    3.1350    1.5850 hc        1 MOL      0.030667
    161 H71         2.3270    1.7810    2.7500 hc        1 MOL     -0.034316
    162 H72         3.3270    1.5360    1.3140 hc        1 MOL     -0.034316
    163 N14         4.0340    4.2180    3.3360 n         1 MOL     -0.205507
    164 C55         4.3440    4.5600    4.7000 c3        1 MOL     -0.032679
    165 H73         4.6410    3.6610    5.2400 h1        1 MOL      0.038974
    166 H74         5.1600    5.2810    4.7190 h1        1 MOL      0.038974
    167 H75         3.4640    4.9940    5.1750 h1        1 MOL      0.038974
    168 H76         4.7160    3.8040    2.7150 hn        1 MOL      0.192201
    169 Ca1         0.0640   -1.5170   -0.7750 Ca        1 MOL      1.764203
    170 O24        -0.1940   -1.9030   -3.6570 oh        1 MOL     -0.827533
    171 H77        -0.3650   -2.4970   -4.3910 ho        1 MOL      0.398162
    172 H78        -1.0200   -1.4230   -3.5500 ho        1 MOL      0.398162
    173 O25        -1.9980   -1.7060    0.9310 oh        1 MOL     -0.827533
    174 H79        -2.0550   -1.2440    1.7560 ho        1 MOL      0.398162
    175 H80        -2.4000   -1.1210    0.2890 ho        1 MOL      0.398162
    176 O26         0.1460    0.9130   -1.8820 oh        1 MOL     -0.827533
    177 H81         0.3440    1.1520   -2.7910 ho        1 MOL      0.398162
    178 H82        -0.2010    1.7140   -1.4960 ho        1 MOL      0.398162
@<TRIPOS>BOND
     1    1    2 1   
     2    1    4 1   
     3    1    5 1   
     4    1    6 1   
     5    2    3 2   
     6    2    7 1   
     7    7    8 1   
     8    7   15 1   
     9    8    9 1   
    10    8   11 1   
    11    8   16 1   
    12    9   10 2   
    13    9   19 1   
    14   11   12 1   
    15   11   17 1   
    16   11   18 1   
    17   12   13 1   
    18   12   14 1   
    19   19   20 1   
    20   19   24 1   
    21   20   21 1   
    22   20   23 1   
    23   20   25 1   
    24   21   22 2   
    25   21   29 1   
    26   23   26 1   
    27   23   27 1   
    28   23   28 1   
    29   29   30 1   
    30   29   37 1   
    31   30   31 1   
    32   30   33 1   
    33   30   38 1   
    34   31   32 2   
    35   31   41 1   
    36   33   34 1   
    37   33   39 1   
    38   33   40 1   
    39   34   35 1   
    40   34   36 1   
    41   41   42 1   
    42   41   45 1   
    43   42   43 1   
    44   42   46 1   
    45   42   47 1   
    46   43   44 2   
    47   43   48 1   
    48   48   49 1   
    49   48   56 1   
    50   49   50 1   
    51   49   52 1   
    52   49   57 1   
    53   50   51 2   
    54   50   62 1   
    55   52   53 1   
    56   52   58 1   
    57   52   59 1   
    58   53   54 1   
    59   53   55 2   
    60   54   60 1   
    61   54   61 1   
    62   62   63 1   
    63   62   66 1   
    64   63   64 1   
    65   63   67 1   
    66   63   68 1   
    67   64   65 2   
    68   64   69 1   
    69   69   70 1   
    70   69   76 1   
    71   70   71 1   
    72   70   73 1   
    73   70   77 1   
    74   71   72 2   
    75   71   83 1   
    76   73   74 1   
    77   73   75 1   
    78   73   78 1   
    79   74   80 1   
    80   74   81 1   
    81   74   82 1   
    82   75   79 1   
    83   83   84 1   
    84   83   91 1   
    85   84   85 1   
    86   84   87 1   
    87   84   92 1   
    88   85   86 2   
    89   85  102 1   
    90   87   88 1   
    91   87   89 1   
    92   87   93 1   
    93   88   90 1   
    94   88   94 1   
    95   88   95 1   
    96   89   96 1   
    97   89   97 1   
    98   89   98 1   
    99   90   99 1   
   100   90  100 1   
   101   90  101 1   
   102  102  103 1   
   103  102  110 1   
   104  103  104 1   
   105  103  106 1   
   106  103  111 1   
   107  104  105 2   
   108  104  114 1   
   109  106  107 1   
   110  106  112 1   
   111  106  113 1   
   112  107  108 1   
   113  107  109 1   
   114  114  115 1   
   115  114  125 1   
   116  115  116 1   
   117  115  118 1   
   118  115  126 1   
   119  116  117 2   
   120  116  134 1   
   121  118  119 1   
   122  118  127 1   
   123  118  128 1   
   124  119  120 ar  
   125  119  121 ar  
   126  120  122 ar  
   127  120  129 1   
   128  121  123 ar  
   129  121  130 1   
   130  122  124 ar  
   131  122  131 1   
   132  123  124 ar  
   133  123  132 1   
   134  124  133 1   
   135  134  135 1   
   136  134  140 1   
   137  135  136 1   
   138  135  138 1   
   139  135  141 1   
   140  136  137 2   
   141  136  148 1   
   142  138  139 1   
   143  138  142 1   
   144  138  143 1   
   145  139  140 1   
   146  139  144 1   
   147  139  145 1   
   148  140  146 1   
   149  140  147 1   
   150  148  149 1   
   151  148  157 1   
   152  149  150 1   
   153  149  152 1   
   154  149  158 1   
   155  150  151 2   
   156  150  163 1   
   157  152  153 1   
   158  152  159 1   
   159  152  160 1   
   160  153  154 1   
   161  153  161 1   
   162  153  162 1   
   163  154  155 1   
   164  154  156 1   
   165  163  164 1   
   166  163  168 1   
   167  164  165 1   
   168  164  166 1   
   169  164  167 1   
   170  170  171 1   
   171  170  172 1   
   172  173  174 1   
   173  173  175 1   
   174  176  177 1   
   175  176  178 1   
@<TRIPOS>SUBSTRUCTURE
     1 MOL         1 TEMP              0 ****  ****    0 ROOT
