@<TRIPOS>MOLECULE
MOL
  192   187     1     0     0
SMALL
resp


@<TRIPOS>ATOM
      1 C1          7.0140   -3.6570   -2.6770 c3        1 MOL     -0.132937
      2 C2          5.8120   -3.3450   -1.7430 c         1 MOL      0.341248
      3 O1          5.0650   -2.3590   -1.8830 o         1 MOL     -0.392496
      4 H1          7.7420   -4.2660   -2.1410 hc        1 MOL      0.023517
      5 H2          6.6620   -4.2020   -3.5540 hc        1 MOL      0.023517
      6 H3          7.4820   -2.7250   -2.9910 hc        1 MOL      0.023517
      7 N1          5.6040   -4.2230   -0.7370 n         1 MOL     -0.523558
      8 C3          4.5850   -4.1690    0.3440 c3        1 MOL      0.032685
      9 C4          3.1350   -4.1760   -0.0790 c         1 MOL      0.736444
     10 O2          2.1950   -3.5840    0.4940 o         1 MOL     -0.553983
     11 C5          4.8440   -3.1360    1.4630 c3        1 MOL     -0.583251
     12 C6          6.3440   -3.1460    1.9630 c         1 MOL      0.886152
     13 O3          7.0530   -2.2000    1.5670 o         1 MOL     -0.699525
     14 O4          6.8400   -4.1160    2.5980 o         1 MOL     -0.699525
     15 H4          6.2150   -5.0260   -0.7320 hn        1 MOL      0.342797
     16 H5          4.7070   -5.1200    0.8670 h1        1 MOL      0.060517
     17 H6          4.3150   -3.5810    2.3090 hc        1 MOL      0.172898
     18 H7          4.3700   -2.1610    1.2990 hc        1 MOL      0.172898
     19 N2          2.8480   -4.9720   -1.1750 n         1 MOL     -0.627187
     20 C7          1.5900   -5.1310   -1.8980 c3        1 MOL      0.060439
     21 C8          0.7640   -6.3270   -1.5050 c         1 MOL      0.495408
     22 O5          1.1550   -7.4190   -1.7970 o         1 MOL     -0.579967
     23 C9          1.9310   -5.1660   -3.4100 c3        1 MOL      0.262509
     24 C10         2.8400   -4.0080   -3.9010 c3        1 MOL     -0.217544
     25 C11         0.6780   -5.1900   -4.1900 c3        1 MOL     -0.338229
     26 C12         2.0860   -2.6470   -3.7320 c3        1 MOL     -0.142572
     27 H8          3.5470   -5.6570   -1.4200 hn        1 MOL      0.290547
     28 H9          1.0010   -4.2630   -1.6300 h1        1 MOL      0.259878
     29 H10         2.4720   -6.0880   -3.5690 hc        1 MOL     -0.041857
     30 H11         3.1430   -4.1930   -4.9300 hc        1 MOL      0.087448
     31 H12         3.7140   -3.9670   -3.2560 hc        1 MOL      0.087448
     32 H13        -0.0020   -4.3740   -3.9370 hc        1 MOL      0.066798
     33 H14         0.9440   -5.0490   -5.2410 hc        1 MOL      0.066798
     34 H15         0.1400   -6.1310   -4.0750 hc        1 MOL      0.066798
     35 H16         2.6170   -1.7160   -3.9600 hc        1 MOL      0.043334
     36 H17         1.3860   -2.6650   -4.5680 hc        1 MOL      0.043334
     37 H18         1.6510   -2.5220   -2.7340 hc        1 MOL      0.043334
     38 N3         -0.4270   -6.2670   -0.8560 n         1 MOL     -0.390336
     39 C13        -0.9620   -4.9830   -0.3080 c3        1 MOL     -0.049136
     40 C14        -1.8690   -5.3500    0.9180 c         1 MOL      0.517111
     41 O6         -2.6710   -6.2920    0.9430 o         1 MOL     -0.515153
     42 C15        -1.8240   -4.3450   -1.4310 c3        1 MOL     -0.310084
     43 C16        -2.6720   -3.1980   -0.8750 c         1 MOL      0.660576
     44 O7         -3.7890   -3.4100   -0.3420 o         1 MOL     -0.632424
     45 O8         -2.1200   -2.0490   -0.8180 o         1 MOL     -0.632424
     46 H19        -0.7680   -7.1590   -0.5420 hn        1 MOL      0.287295
     47 H20        -0.1260   -4.3290   -0.0440 h1        1 MOL      0.021571
     48 H21        -2.3680   -5.0540   -2.0400 hc        1 MOL      0.089296
     49 H22        -1.0770   -3.8400   -2.0550 hc        1 MOL      0.089296
     50 N4         -1.8580   -4.4880    1.9740 n         1 MOL     -0.422118
     51 C17        -2.4410   -4.7730    3.2630 c3        1 MOL     -0.067790
     52 C18        -3.9630   -4.4380    3.4680 c         1 MOL      0.605804
     53 O9         -4.4460   -4.7820    4.5770 o         1 MOL     -0.604940
     54 H23        -1.3010   -3.6520    1.9370 hn        1 MOL      0.349995
     55 H24        -1.8630   -4.2440    4.0290 h1        1 MOL      0.068524
     56 H25        -2.3600   -5.8270    3.5300 h1        1 MOL      0.068524
     57 N5         -4.6190   -3.6980    2.5760 n         1 MOL     -0.492425
     58 C19        -5.8970   -3.0440    2.8990 c3        1 MOL      0.104837
     59 C20        -6.8790   -2.7100    1.7370 c         1 MOL      0.370681
     60 O10        -8.1000   -2.5090    1.9340 o         1 MOL     -0.541864
     61 C21        -5.6930   -1.7090    3.6410 c3        1 MOL      0.026499
     62 C22        -4.7570   -0.7030    2.8760 c         1 MOL      0.602062
     63 O11        -4.9420   -0.3020    1.7240 o         1 MOL     -0.631415
     64 O12        -3.6410   -0.6210    3.4830 o         1 MOL     -0.631415
     65 H26        -4.2390   -3.5280    1.6500 hn        1 MOL      0.324880
     66 H27        -6.4220   -3.6850    3.6100 h1        1 MOL      0.065758
     67 H28        -5.2960   -1.8130    4.6470 hc        1 MOL     -0.026733
     68 H29        -6.6940   -1.3100    3.8310 hc        1 MOL     -0.026733
     69 N6         -6.4030   -2.6830    0.4900 n         1 MOL     -0.241302
     70 C23        -7.2330   -2.3480   -0.6980 c3        1 MOL     -0.301050
     71 C24        -7.8290   -0.9480   -0.6800 c         1 MOL      0.531421
     72 O13        -8.8300   -0.6570   -1.3760 o         1 MOL     -0.591245
     73 H30        -5.3990   -2.7000    0.3870 hn        1 MOL      0.252248
     74 H31        -7.9990   -3.1180   -0.7310 h1        1 MOL      0.140488
     75 H32        -6.6330   -2.3310   -1.6150 h1        1 MOL      0.140488
     76 N7         -7.3580   -0.0310    0.2160 n         1 MOL     -0.055241
     77 C25        -7.4900    1.3930    0.1630 c3        1 MOL     -0.019960
     78 C26        -7.3260    2.0360   -1.2270 c         1 MOL      0.603605
     79 O14        -7.8120    3.1720   -1.4090 o         1 MOL     -0.578593
     80 C27        -8.6790    1.8600    0.9390 c3        1 MOL     -0.111042
     81 C28        -8.8190    1.1750    2.3360 c3        1 MOL      0.047350
     82 C29        -9.7230    1.8030    3.4060 c         1 MOL      0.576380
     83 N8        -10.8490    2.3700    3.1210 n         1 MOL     -0.743890
     84 O15        -9.4160    1.8320    4.6490 o         1 MOL     -0.599723
     85 H33        -6.6040   -0.4220    0.7570 hn        1 MOL      0.146475
     86 H34        -6.6500    1.7660    0.7560 h1        1 MOL      0.118604
     87 H35        -9.5840    1.7570    0.3490 hc        1 MOL      0.012488
     88 H36        -8.4610    2.9070    1.1280 hc        1 MOL      0.012488
     89 H37        -7.8200    1.0790    2.7540 hc        1 MOL     -0.000452
     90 H38        -9.1470    0.1340    2.2820 hc        1 MOL     -0.000452
     91 H39       -11.1130    2.4040    2.1600 hn        1 MOL      0.341929
     92 H40       -11.2090    2.9300    3.8930 hn        1 MOL      0.341929
     93 N9         -6.6340    1.4180   -2.1270 n         1 MOL     -0.565006
     94 C30        -6.3570    1.8600   -3.4820 c3        1 MOL      0.271778
     95 C31        -4.9030    2.1160   -3.7120 c         1 MOL      0.295348
     96 O16        -4.6160    3.0400   -4.4820 o         1 MOL     -0.559155
     97 C32        -6.9270    0.8600   -4.5030 c3        1 MOL      0.124628
     98 C33        -6.2300   -0.5210   -4.4240 c3        1 MOL     -0.088452
     99 C34        -8.4700    0.7420   -4.5150 c3        1 MOL     -0.088452
    100 H41        -6.2740    0.5160   -1.8650 hn        1 MOL      0.248811
    101 H42        -6.9050    2.7770   -3.7010 h1        1 MOL      0.045080
    102 H43        -6.7280    1.2240   -5.5120 hc        1 MOL     -0.045042
    103 H44        -5.1820   -0.4660   -4.1680 hc        1 MOL      0.008473
    104 H45        -6.7300   -1.2760   -3.8140 hc        1 MOL      0.008473
    105 H46        -6.2370   -0.9910   -5.4080 hc        1 MOL      0.008473
    106 H47        -8.9070    1.6850   -4.8440 hc        1 MOL      0.008473
    107 H48        -8.8160   -0.0730   -5.1500 hc        1 MOL      0.008473
    108 H49        -8.6590    0.5220   -3.4640 hc        1 MOL      0.008473
    109 N10        -4.0200    1.4580   -2.9770 n         1 MOL     -0.107763
    110 C35        -2.5920    1.7110   -2.9590 c3        1 MOL      0.091919
    111 C36        -2.2680    2.1540   -1.6020 c         1 MOL      0.559887
    112 O17        -3.1230    2.0260   -0.6620 o         1 MOL     -0.564167
    113 C37        -1.9140    0.3570   -3.3400 c3        1 MOL     -0.193311
    114 C38        -0.4510    0.1780   -2.9530 c         1 MOL      0.699161
    115 N11        -0.0980   -0.6600   -2.0500 n         1 MOL     -0.917585
    116 O18         0.2940    0.9560   -3.4710 o         1 MOL     -0.623709
    117 H50        -4.3770    0.9060   -2.2010 hn        1 MOL      0.186033
    118 H51        -2.4430    2.5010   -3.6890 h1        1 MOL      0.053224
    119 H52        -1.9780    0.0580   -4.3820 hc        1 MOL      0.037362
    120 H53        -2.3930   -0.3880   -2.7090 hc        1 MOL      0.037362
    121 H54        -0.7360   -1.1920   -1.4800 hn        1 MOL      0.412173
    122 H55         0.8530   -0.8680   -1.8010 hn        1 MOL      0.412173
    123 N12        -1.0880    2.7630   -1.4250 n         1 MOL     -0.531719
    124 C39        -0.5800    3.3290   -0.1610 c3        1 MOL      0.265551
    125 C40         0.6780    4.1460   -0.5420 c         1 MOL      0.407778
    126 O19         1.2090    3.9230   -1.6090 o         1 MOL     -0.561060
    127 C41        -0.2320    2.2740    0.8930 c3        1 MOL      0.074554
    128 C42        -0.1920    2.6930    2.3120 ca        1 MOL     -0.173819
    129 C43        -1.3680    2.6650    3.1990 ca        1 MOL      0.015540
    130 C44         0.9830    3.1190    2.8790 ca        1 MOL      0.015540
    131 C45        -1.4140    3.3210    4.4660 ca        1 MOL     -0.372103
    132 C46         1.0060    3.5090    4.1940 ca        1 MOL     -0.372103
    133 C47        -0.1660    3.7220    4.9700 ca        1 MOL      0.431300
    134 O20        -0.0440    4.3270    6.2100 oh        1 MOL     -0.581063
    135 H56        -0.5440    2.9240   -2.2680 hn        1 MOL      0.307525
    136 H57        -1.2660    3.9880    0.3500 h1        1 MOL     -0.019306
    137 H58         0.7280    1.8080    0.7000 hc        1 MOL      0.043615
    138 H59        -0.9110    1.4220    0.8390 hc        1 MOL      0.043615
    139 H60        -2.2610    2.3260    2.6910 ha        1 MOL      0.103714
    140 H61         1.8910    3.0060    2.3180 ha        1 MOL      0.103714
    141 H62        -2.3390    3.3330    5.0160 ha        1 MOL      0.166230
    142 H63         1.9390    3.7400    4.6800 ha        1 MOL      0.166230
    143 H64        -0.8800    4.5590    6.6290 ho        1 MOL      0.395178
    144 N13         1.2790    4.9650    0.3090 n         1 MOL     -0.307351
    145 C48         2.6270    5.6210    0.1290 c3        1 MOL      0.036662
    146 C49         3.7200    5.0780    1.1430 c         1 MOL      0.578460
    147 O21         4.0030    5.5770    2.1920 o         1 MOL     -0.579696
    148 C50         2.3830    7.1470    0.1710 c3        1 MOL     -0.000072
    149 C51         2.1480    7.8510   -1.1380 c3        1 MOL     -0.126627
    150 C52         2.3000    9.4020   -0.9220 c         1 MOL      0.658481
    151 O22         3.0130   10.0760   -1.7160 o         1 MOL     -0.654936
    152 O23         1.7740    9.9830    0.0860 o         1 MOL     -0.654936
    153 H65         0.8330    5.0510    1.2100 hn        1 MOL      0.219709
    154 H66         3.0380    5.5380   -0.8760 h1        1 MOL      0.173327
    155 H67         3.3300    7.6160    0.4200 hc        1 MOL      0.013206
    156 H68         1.6210    7.4220    0.8970 hc        1 MOL      0.013206
    157 H69         1.0920    7.7030   -1.3200 hc        1 MOL      0.000581
    158 H70         2.7620    7.4040   -1.9190 hc        1 MOL      0.000581
    159 N14         4.4010    3.9670    0.8640 n         1 MOL     -0.542888
    160 C53         4.4110    3.1500   -0.3310 c3        1 MOL     -0.138455
    161 C54         5.0010    3.8360   -1.5480 c         1 MOL      0.533972
    162 O24         5.5870    4.9240   -1.4540 o         1 MOL     -0.533803
    163 C55         5.3310    1.9010   -0.0090 c3        1 MOL     -0.156199
    164 C56         6.8190    2.2450    0.2740 c3        1 MOL     -0.234080
    165 C57         7.7320    1.0440    0.4690 c         1 MOL      0.558988
    166 O25         8.4520    0.9320    1.4340 o         1 MOL     -0.562506
    167 O26         7.7850    0.1020   -0.4180 o         1 MOL     -0.562506
    168 H71         5.1130    3.6830    1.5190 hn        1 MOL      0.359491
    169 H72         3.3810    2.8770   -0.5340 h1        1 MOL      0.126844
    170 H73         5.2200    1.2130   -0.8480 hc        1 MOL      0.083463
    171 H74         4.9660    1.4450    0.9060 hc        1 MOL      0.083463
    172 H75         6.8490    2.9590    1.0910 hc        1 MOL      0.076420
    173 H76         7.2420    2.7390   -0.5980 hc        1 MOL      0.076420
    174 N15         4.6990    3.3380   -2.7120 n         1 MOL     -0.323851
    175 C58         5.0130    3.8330   -4.1120 c3        1 MOL     -0.229558
    176 H77         4.1170    4.2700   -4.5520 h1        1 MOL      0.115548
    177 H78         5.7990    4.5860   -4.0640 h1        1 MOL      0.115548
    178 H79         5.3470    2.9970   -4.7270 h1        1 MOL      0.115548
    179 H80         4.1520    2.4970   -2.6160 hn        1 MOL      0.290252
    180 Ca1         9.4700   -1.4450    1.0960 Ca        1 MOL      1.591101
    181 O27         9.5570   -3.7910    2.2920 oh        1 MOL     -0.894811
    182 H81         8.6360   -3.6640    2.4810 ho        1 MOL      0.400637
    183 H82         9.8120   -4.5560    2.8030 ho        1 MOL      0.400637
    184 O28        10.8170   -0.1880   -0.9790 oh        1 MOL     -0.894811
    185 O29        11.5380    0.0710    2.2050 oh        1 MOL     -0.894811
    186 H83        11.1280    0.6290   -1.3730 ho        1 MOL      0.400637
    187 H84        12.4550   -0.0620    1.9670 ho        1 MOL      0.400637
    188 H85        11.6060   -0.7430   -0.9320 ho        1 MOL      0.400637
    189 H86        11.4900    1.0000    2.4520 ho        1 MOL      0.400637
    190 O30         8.8150   -1.1590    3.6730 oh        1 MOL     -0.894811
    191 H87         8.4700   -1.9390    4.0960 ho        1 MOL      0.400637
    192 H88         9.2520   -0.6710    4.3770 ho        1 MOL      0.400637
@<TRIPOS>BOND
     1    1    2 1   
     2    1    4 1   
     3    1    5 1   
     4    1    6 1   
     5    2    3 2   
     6    2    7 1   
     7    7    8 1   
     8    7   15 1   
     9    8    9 1   
    10    8   11 1   
    11    8   16 1   
    12    9   10 2   
    13    9   19 1   
    14   11   12 1   
    15   11   17 1   
    16   11   18 1   
    17   12   13 1   
    18   12   14 1   
    19   19   20 1   
    20   19   27 1   
    21   20   21 1   
    22   20   23 1   
    23   20   28 1   
    24   21   22 2   
    25   21   38 1   
    26   23   24 1   
    27   23   25 1   
    28   23   29 1   
    29   24   26 1   
    30   24   30 1   
    31   24   31 1   
    32   25   32 1   
    33   25   33 1   
    34   25   34 1   
    35   26   35 1   
    36   26   36 1   
    37   26   37 1   
    38   38   39 1   
    39   38   46 1   
    40   39   40 1   
    41   39   42 1   
    42   39   47 1   
    43   40   41 2   
    44   40   50 1   
    45   42   43 1   
    46   42   48 1   
    47   42   49 1   
    48   43   44 1   
    49   43   45 1   
    50   50   51 1   
    51   50   54 1   
    52   51   52 1   
    53   51   55 1   
    54   51   56 1   
    55   52   53 2   
    56   52   57 1   
    57   57   58 1   
    58   57   65 1   
    59   58   59 1   
    60   58   61 1   
    61   58   66 1   
    62   59   60 2   
    63   59   69 1   
    64   61   62 1   
    65   61   67 1   
    66   61   68 1   
    67   62   63 1   
    68   62   64 1   
    69   69   70 1   
    70   69   73 1   
    71   70   71 1   
    72   70   74 1   
    73   70   75 1   
    74   71   72 2   
    75   71   76 1   
    76   76   77 1   
    77   76   85 1   
    78   77   78 1   
    79   77   80 1   
    80   77   86 1   
    81   78   79 2   
    82   78   93 1   
    83   80   81 1   
    84   80   87 1   
    85   80   88 1   
    86   81   82 1   
    87   81   89 1   
    88   81   90 1   
    89   82   83 1   
    90   82   84 2   
    91   83   91 1   
    92   83   92 1   
    93   93   94 1   
    94   93  100 1   
    95   94   95 1   
    96   94   97 1   
    97   94  101 1   
    98   95   96 2   
    99   95  109 1   
   100   97   98 1   
   101   97   99 1   
   102   97  102 1   
   103   98  103 1   
   104   98  104 1   
   105   98  105 1   
   106   99  106 1   
   107   99  107 1   
   108   99  108 1   
   109  109  110 1   
   110  109  117 1   
   111  110  111 1   
   112  110  113 1   
   113  110  118 1   
   114  111  112 2   
   115  111  123 1   
   116  113  114 1   
   117  113  119 1   
   118  113  120 1   
   119  114  115 1   
   120  114  116 2   
   121  115  121 1   
   122  115  122 1   
   123  123  124 1   
   124  123  135 1   
   125  124  125 1   
   126  124  127 1   
   127  124  136 1   
   128  125  126 2   
   129  125  144 1   
   130  127  128 1   
   131  127  137 1   
   132  127  138 1   
   133  128  129 ar  
   134  128  130 ar  
   135  129  131 ar  
   136  129  139 1   
   137  130  132 ar  
   138  130  140 1   
   139  131  133 ar  
   140  131  141 1   
   141  132  133 ar  
   142  132  142 1   
   143  133  134 1   
   144  134  143 1   
   145  144  145 1   
   146  144  153 1   
   147  145  146 1   
   148  145  148 1   
   149  145  154 1   
   150  146  147 2   
   151  146  159 1   
   152  148  149 1   
   153  148  155 1   
   154  148  156 1   
   155  149  150 1   
   156  149  157 1   
   157  149  158 1   
   158  150  151 1   
   159  150  152 1   
   160  159  160 1   
   161  159  168 1   
   162  160  161 1   
   163  160  163 1   
   164  160  169 1   
   165  161  162 2   
   166  161  174 1   
   167  163  164 1   
   168  163  170 1   
   169  163  171 1   
   170  164  165 1   
   171  164  172 1   
   172  164  173 1   
   173  165  166 1   
   174  165  167 1   
   175  174  175 1   
   176  174  179 1   
   177  175  176 1   
   178  175  177 1   
   179  175  178 1   
   180  181  182 1   
   181  181  183 1   
   182  184  186 1   
   183  184  188 1   
   184  185  187 1   
   185  185  189 1   
   186  190  191 1   
   187  190  192 1   
@<TRIPOS>SUBSTRUCTURE
     1 MOL         1 TEMP              0 ****  ****    0 ROOT
