@<TRIPOS>MOLECULE
MOL
  184   179     1     0     0
SMALL
resp


@<TRIPOS>ATOM
      1 C1          4.2000   -0.0320    4.4940 c3        1 MOL     -0.418990
      2 C2          5.3740    0.8050    4.1610 c         1 MOL      0.791531
      3 O1          5.3110    2.0100    4.0360 o         1 MOL     -0.598698
      4 H1          4.0290   -0.0060    5.5700 hc        1 MOL      0.094201
      5 H2          3.3200    0.3530    3.9780 hc        1 MOL      0.094201
      6 H3          4.3850   -1.0590    4.1800 hc        1 MOL      0.094201
      7 N1          6.5250    0.1720    3.8210 n         1 MOL     -0.654115
      8 C3          7.8480    0.7980    3.6730 c3        1 MOL      0.209415
      9 C4          8.1270    1.0140    2.1740 c         1 MOL      0.551725
     10 O2          8.3780    2.1200    1.7640 o         1 MOL     -0.517854
     11 C5          8.9150   -0.1070    4.3890 c3        1 MOL     -0.193787
     12 C6         10.3450    0.4300    4.5560 c         1 MOL      0.717779
     13 O3         10.3820    1.6260    4.8780 o         1 MOL     -0.729447
     14 O4         11.3080   -0.3800    4.6280 o         1 MOL     -0.729447
     15 H4          6.4850   -0.8330    3.8190 hn        1 MOL      0.270400
     16 H5          7.8150    1.7660    4.1640 h1        1 MOL      0.072724
     17 H6          8.9080   -1.0950    3.9220 hc        1 MOL      0.004646
     18 H7          8.5380   -0.1420    5.4140 hc        1 MOL      0.004646
     19 N2          8.1100   -0.0800    1.4060 n         1 MOL     -0.526742
     20 C7          8.1470   -0.0260   -0.1230 c3        1 MOL      0.096340
     21 C8          7.0170    0.6550   -0.8840 c         1 MOL      0.637699
     22 O5          6.4010    1.5330   -0.3340 o         1 MOL     -0.476907
     23 C9          9.5330    0.5140   -0.6100 c3        1 MOL     -0.391976
     24 H8          7.9430   -0.9610    1.8680 hn        1 MOL      0.292596
     25 H9          8.2410   -1.0510   -0.5090 h1        1 MOL      0.049224
     26 H10        10.3300    0.0390   -0.0320 hc        1 MOL      0.112794
     27 H11         9.6940    0.2050   -1.6380 hc        1 MOL      0.112794
     28 H12         9.4320    1.5840   -0.4500 hc        1 MOL      0.112794
     29 N3          6.6660    0.2000   -2.0390 n         1 MOL     -0.610913
     30 C10         5.3210    0.4170   -2.5830 c3        1 MOL     -0.072368
     31 C11         5.1230    1.7120   -3.4420 c         1 MOL      0.642630
     32 O6          6.0790    2.3060   -3.8950 o         1 MOL     -0.521377
     33 C12         4.9460   -0.8550   -3.2990 c3        1 MOL      0.009841
     34 C13         4.8940   -2.0150   -2.3660 c         1 MOL      0.811665
     35 O7          3.8000   -2.1980   -1.7790 o         1 MOL     -0.765991
     36 O8          5.9780   -2.7320   -2.2760 o         1 MOL     -0.765991
     37 H13         7.2870   -0.5310   -2.3490 hn        1 MOL      0.348124
     38 H14         4.6270    0.5190   -1.7470 h1        1 MOL      0.086020
     39 H15         5.5610   -1.0840   -4.1760 hc        1 MOL     -0.033460
     40 H16         3.9340   -0.7650   -3.7030 hc        1 MOL     -0.033460
     41 N4          3.8750    2.1350   -3.5830 n         1 MOL     -0.438070
     42 C14         3.5860    3.4700   -4.1330 c3        1 MOL     -0.390196
     43 C15         2.1090    3.8100   -4.1130 c         1 MOL      0.717504
     44 O9          1.9140    4.9150   -4.6240 o         1 MOL     -0.605709
     45 H17         3.2170    1.5710   -3.0650 hn        1 MOL      0.302443
     46 H18         3.7700    3.5280   -5.2020 h1        1 MOL      0.193685
     47 H19         4.1310    4.2200   -3.5460 h1        1 MOL      0.193685
     48 N5          1.1350    2.9940   -3.7270 n         1 MOL     -0.370885
     49 C16        -0.2470    3.2770   -3.6800 c3        1 MOL     -0.025275
     50 C17        -0.5660    4.3300   -2.6120 c         1 MOL      0.553153
     51 O10        -0.4580    4.0930   -1.3920 o         1 MOL     -0.528628
     52 C18        -0.9200    1.9630   -3.2500 c3        1 MOL     -0.343720
     53 C19        -0.8040    1.0150   -4.4200 c         1 MOL      0.686466
     54 N6         -0.0860   -0.0800   -4.3910 n         1 MOL     -0.717520
     55 O11        -1.4130    1.2380   -5.4980 o         1 MOL     -0.607443
     56 H20         1.3710    2.0610   -3.4340 hn        1 MOL      0.215488
     57 H21        -0.6670    3.6430   -4.6200 h1        1 MOL      0.060746
     58 H22        -1.9830    2.1350   -3.1080 hc        1 MOL      0.174938
     59 H23        -0.4770    1.5700   -2.3360 hc        1 MOL      0.174938
     60 H24         0.1820   -0.4840   -3.5030 hn        1 MOL      0.328142
     61 H25         0.1770   -0.5030   -5.2790 hn        1 MOL      0.328142
     62 N7         -0.8330    5.5380   -2.9920 n         1 MOL     -0.351893
     63 C20        -1.2750    6.6480   -2.1000 c3        1 MOL     -0.110713
     64 C21        -2.5250    6.2970   -1.3010 c         1 MOL      0.642929
     65 O12        -3.2810    5.5040   -1.7820 o         1 MOL     -0.512749
     66 H26        -0.7400    5.7860   -3.9740 hn        1 MOL      0.290165
     67 H27        -1.5810    7.5790   -2.5700 h1        1 MOL      0.079522
     68 H28        -0.4650    6.8670   -1.4000 h1        1 MOL      0.079522
     69 N8         -2.7760    6.9120   -0.1640 n         1 MOL     -0.433036
     70 C22        -3.9700    6.6000    0.6940 c3        1 MOL     -0.309910
     71 C23        -4.0790    5.2470    1.4140 c         1 MOL      0.508242
     72 O13        -4.9050    5.0330    2.2930 o         1 MOL     -0.539084
     73 C24        -4.1280    7.6850    1.7850 c3        1 MOL      0.553863
     74 C25        -3.1780    7.7800    3.0020 c3        1 MOL     -0.319364
     75 O14        -3.9740    8.9620    1.0870 oh        1 MOL     -0.680806
     76 H29        -2.2400    7.7280    0.1100 hn        1 MOL      0.246185
     77 H30        -4.8710    6.6860    0.0890 h1        1 MOL      0.169371
     78 H31        -5.1720    7.6100    2.0960 h1        1 MOL      0.009646
     79 H32        -3.0950    8.9920    0.7040 ho        1 MOL      0.383094
     80 H33        -2.2590    7.2990    2.6760 hc        1 MOL      0.076860
     81 H34        -2.9820    8.8020    3.3350 hc        1 MOL      0.076860
     82 H35        -3.6410    7.1880    3.7920 hc        1 MOL      0.076860
     83 N9         -3.1470    4.3470    1.0630 n         1 MOL     -0.100764
     84 C26        -3.0210    3.0390    1.6970 c3        1 MOL     -0.035049
     85 C27        -2.9180    2.0100    0.6430 c         1 MOL      0.477653
     86 O15        -3.2040    2.2570   -0.5480 o         1 MOL     -0.466513
     87 C28        -1.7750    2.9880    2.6290 c3        1 MOL      0.075826
     88 C29        -0.5220    3.3490    1.8640 c3        1 MOL      0.118883
     89 C30        -1.8800    3.7480    3.9190 c3        1 MOL     -0.319452
     90 C31         0.7180    2.8010    2.4240 c3        1 MOL     -0.328761
     91 H36        -2.4720    4.4830    0.3220 hn        1 MOL      0.041471
     92 H37        -3.9670    2.7850    2.1630 h1        1 MOL      0.103545
     93 H38        -1.7240    1.9720    3.0330 hc        1 MOL      0.034072
     94 H39        -0.4030    4.4300    1.9210 hc        1 MOL      0.023258
     95 H40        -0.5920    3.0510    0.8240 hc        1 MOL      0.023258
     96 H41        -1.7640    4.8330    3.8120 hc        1 MOL      0.072552
     97 H42        -2.7880    3.4870    4.4560 hc        1 MOL      0.072552
     98 H43        -0.9930    3.4240    4.4580 hc        1 MOL      0.072552
     99 H44         1.5850    3.2060    1.8790 hc        1 MOL      0.093966
    100 H45         0.7730    2.9800    3.5000 hc        1 MOL      0.093966
    101 H46         0.8010    1.7350    2.2350 hc        1 MOL      0.093966
    102 N10        -2.5200    0.7750    0.9680 n         1 MOL     -0.535669
    103 C32        -2.1240   -0.2360   -0.0200 c3        1 MOL      0.334704
    104 C33        -3.3550   -1.1940   -0.3350 c         1 MOL      0.472474
    105 O16        -3.2600   -2.4060   -0.2940 o         1 MOL     -0.535030
    106 C34        -0.8230   -0.8860    0.4580 c3        1 MOL     -0.246993
    107 C35        -0.0700   -1.6380   -0.5980 c         1 MOL      0.879462
    108 O17        -0.1710   -1.2690   -1.7690 o         1 MOL     -0.784819
    109 O18         0.8320   -2.4500   -0.2750 o         1 MOL     -0.784819
    110 H47        -2.3830    0.5690    1.9500 hn        1 MOL      0.253468
    111 H48        -1.9630    0.2790   -0.9610 h1        1 MOL     -0.026934
    112 H49        -1.0980   -1.6310    1.2050 hc        1 MOL      0.072079
    113 H50        -0.1200   -0.1320    0.8160 hc        1 MOL      0.072079
    114 N11        -4.5380   -0.6930   -0.5770 n         1 MOL     -0.448334
    115 C36        -5.8400   -1.3610   -0.9300 c3        1 MOL      0.363069
    116 C37        -6.1040   -2.5380    0.0780 c         1 MOL      0.192296
    117 O19        -6.0590   -2.3430    1.3300 o         1 MOL     -0.460265
    118 C38        -6.9660   -0.4220   -1.0860 c3        1 MOL     -0.148400
    119 C39        -7.3840    0.4870    0.0630 ca        1 MOL     -0.021673
    120 C40        -8.4000    0.0490    0.8830 ca        1 MOL     -0.015115
    121 C41        -6.6880    1.6920    0.2780 ca        1 MOL     -0.015115
    122 C42        -8.9280    0.9120    1.8600 ca        1 MOL     -0.200814
    123 C43        -7.1460    2.4830    1.2620 ca        1 MOL     -0.200814
    124 C44        -8.2740    2.1110    2.0190 ca        1 MOL     -0.049031
    125 H51        -4.6010    0.3080   -0.4310 hn        1 MOL      0.203356
    126 H52        -5.6880   -1.7770   -1.9240 h1        1 MOL     -0.011413
    127 H53        -7.8320   -1.0570   -1.2770 hc        1 MOL      0.046065
    128 H54        -6.9320    0.1850   -1.9860 hc        1 MOL      0.046065
    129 H55        -8.9810   -0.8240    0.6300 ha        1 MOL      0.086010
    130 H56        -5.8120    2.0080   -0.2790 ha        1 MOL      0.086010
    131 H57        -9.7470    0.4890    2.4070 ha        1 MOL      0.122979
    132 H58        -6.6630    3.4300    1.4370 ha        1 MOL      0.122979
    133 H59        -8.5900    2.8340    2.7540 ha        1 MOL      0.089005
    134 N12        -6.2520   -3.7810   -0.3660 n         1 MOL     -0.116844
    135 C45        -6.4070   -4.9660    0.4780 c3        1 MOL      0.226110
    136 C46        -5.4040   -5.1290    1.6740 c         1 MOL      0.201423
    137 O20        -5.6910   -5.5970    2.7390 o         1 MOL     -0.499940
    138 C47        -6.3260   -6.1800   -0.4130 c3        1 MOL      0.039869
    139 C48        -6.5820   -5.6750   -1.8390 c3        1 MOL     -0.187759
    140 C49        -6.1140   -4.2360   -1.7400 c3        1 MOL     -0.062096
    141 H60        -7.4110   -4.8700    0.8770 h1        1 MOL     -0.001291
    142 H61        -5.2850   -6.5040   -0.3520 hc        1 MOL      0.008789
    143 H62        -7.0450   -6.9180   -0.0810 hc        1 MOL      0.008789
    144 H63        -5.9680   -6.2840   -2.5110 hc        1 MOL      0.065884
    145 H64        -7.6290   -5.6950   -2.1320 hc        1 MOL      0.065884
    146 H65        -5.0820   -4.1680   -2.0860 h1        1 MOL      0.071679
    147 H66        -6.6920   -3.6480   -2.4610 h1        1 MOL      0.071679
    148 N13        -4.1700   -4.7840    1.3020 n         1 MOL      0.037188
    149 C50        -2.9730   -4.8010    2.1670 c3        1 MOL     -0.467295
    150 C51        -2.8370   -3.6250    3.1730 c         1 MOL      0.536891
    151 O21        -1.8020   -3.3610    3.7590 o         1 MOL     -0.530775
    152 C52        -1.7000   -5.0080    1.3580 c3        1 MOL      0.095787
    153 C53        -1.7870   -6.1130    0.3290 c3        1 MOL     -0.232116
    154 C54        -0.3580   -6.2250   -0.1790 c         1 MOL      0.805099
    155 O22         0.0120   -5.3190   -1.0090 o         1 MOL     -0.759901
    156 O23         0.3810   -7.1890    0.0550 o         1 MOL     -0.759901
    157 H67        -4.0360   -4.3930    0.3760 hn        1 MOL      0.266358
    158 H68        -3.1020   -5.7130    2.7460 h1        1 MOL      0.180721
    159 H69        -0.8350   -5.3020    1.9510 hc        1 MOL      0.035468
    160 H70        -1.4880   -4.0360    0.9140 hc        1 MOL      0.035468
    161 H71        -2.5580   -5.8060   -0.3660 hc        1 MOL      0.031485
    162 H72        -2.1000   -7.0750    0.7230 hc        1 MOL      0.031485
    163 N14        -3.9190   -2.8310    3.2960 n         1 MOL     -0.163309
    164 C55        -4.1300   -1.7510    4.3030 c3        1 MOL     -0.274479
    165 H73        -4.2160   -2.1930    5.2950 h1        1 MOL      0.105684
    166 H74        -3.2820   -1.0650    4.2830 h1        1 MOL      0.105684
    167 H75        -5.0450   -1.2070    4.0670 h1        1 MOL      0.105684
    168 H76        -4.6220   -2.8800    2.5760 hn        1 MOL      0.211691
    169 Ca1         2.2450   -4.1470   -1.3900 Ca        1 MOL      1.778285
    170 O24         2.5650   -6.8440   -1.5860 oh        1 MOL     -0.837831
    171 H77         1.9280   -7.1760   -0.9660 ho        1 MOL      0.400402
    172 H78         3.1950   -7.5620   -1.6910 ho        1 MOL      0.400402
    173 O25         2.3930   -5.0660    1.1860 oh        1 MOL     -0.837831
    174 H79         1.7310   -4.9760    1.8800 ho        1 MOL      0.400402
    175 H80         2.6300   -5.9920    1.2010 ho        1 MOL      0.400402
    176 O26         3.1650   -4.4680   -3.8970 oh        1 MOL     -0.837831
    177 H81         2.5790   -3.9140   -4.4150 ho        1 MOL      0.400402
    178 H82         3.8570   -4.7260   -4.5020 ho        1 MOL      0.400402
    179 O27         5.1080   -4.8140   -0.7560 oh        1 MOL     -0.837831
    180 H83         5.6020   -4.1410   -1.2060 ho        1 MOL      0.400402
    181 H84         5.7140   -5.1950   -0.1300 ho        1 MOL      0.400402
    182 O28         0.2730   -3.4540   -3.1250 oh        1 MOL     -0.837831
    183 H85         0.1610   -2.5650   -2.7950 ho        1 MOL      0.400402
    184 H86        -0.2100   -3.4710   -3.9580 ho        1 MOL      0.400402
@<TRIPOS>BOND
     1    1    2 1   
     2    1    4 1   
     3    1    5 1   
     4    1    6 1   
     5    2    3 2   
     6    2    7 1   
     7    7    8 1   
     8    7   15 1   
     9    8    9 1   
    10    8   11 1   
    11    8   16 1   
    12    9   10 2   
    13    9   19 1   
    14   11   12 1   
    15   11   17 1   
    16   11   18 1   
    17   12   13 1   
    18   12   14 1   
    19   19   20 1   
    20   19   24 1   
    21   20   21 1   
    22   20   23 1   
    23   20   25 1   
    24   21   22 2   
    25   21   29 1   
    26   23   26 1   
    27   23   27 1   
    28   23   28 1   
    29   29   30 1   
    30   29   37 1   
    31   30   31 1   
    32   30   33 1   
    33   30   38 1   
    34   31   32 2   
    35   31   41 1   
    36   33   34 1   
    37   33   39 1   
    38   33   40 1   
    39   34   35 1   
    40   34   36 1   
    41   41   42 1   
    42   41   45 1   
    43   42   43 1   
    44   42   46 1   
    45   42   47 1   
    46   43   44 2   
    47   43   48 1   
    48   48   49 1   
    49   48   56 1   
    50   49   50 1   
    51   49   52 1   
    52   49   57 1   
    53   50   51 2   
    54   50   62 1   
    55   52   53 1   
    56   52   58 1   
    57   52   59 1   
    58   53   54 1   
    59   53   55 2   
    60   54   60 1   
    61   54   61 1   
    62   62   63 1   
    63   62   66 1   
    64   63   64 1   
    65   63   67 1   
    66   63   68 1   
    67   64   65 2   
    68   64   69 1   
    69   69   70 1   
    70   69   76 1   
    71   70   71 1   
    72   70   73 1   
    73   70   77 1   
    74   71   72 2   
    75   71   83 1   
    76   73   74 1   
    77   73   75 1   
    78   73   78 1   
    79   74   80 1   
    80   74   81 1   
    81   74   82 1   
    82   75   79 1   
    83   83   84 1   
    84   83   91 1   
    85   84   85 1   
    86   84   87 1   
    87   84   92 1   
    88   85   86 2   
    89   85  102 1   
    90   87   88 1   
    91   87   89 1   
    92   87   93 1   
    93   88   90 1   
    94   88   94 1   
    95   88   95 1   
    96   89   96 1   
    97   89   97 1   
    98   89   98 1   
    99   90   99 1   
   100   90  100 1   
   101   90  101 1   
   102  102  103 1   
   103  102  110 1   
   104  103  104 1   
   105  103  106 1   
   106  103  111 1   
   107  104  105 2   
   108  104  114 1   
   109  106  107 1   
   110  106  112 1   
   111  106  113 1   
   112  107  108 1   
   113  107  109 1   
   114  114  115 1   
   115  114  125 1   
   116  115  116 1   
   117  115  118 1   
   118  115  126 1   
   119  116  117 2   
   120  116  134 1   
   121  118  119 1   
   122  118  127 1   
   123  118  128 1   
   124  119  120 ar  
   125  119  121 ar  
   126  120  122 ar  
   127  120  129 1   
   128  121  123 ar  
   129  121  130 1   
   130  122  124 ar  
   131  122  131 1   
   132  123  124 ar  
   133  123  132 1   
   134  124  133 1   
   135  134  135 1   
   136  134  140 1   
   137  135  136 1   
   138  135  138 1   
   139  135  141 1   
   140  136  137 2   
   141  136  148 1   
   142  138  139 1   
   143  138  142 1   
   144  138  143 1   
   145  139  140 1   
   146  139  144 1   
   147  139  145 1   
   148  140  146 1   
   149  140  147 1   
   150  148  149 1   
   151  148  157 1   
   152  149  150 1   
   153  149  152 1   
   154  149  158 1   
   155  150  151 2   
   156  150  163 1   
   157  152  153 1   
   158  152  159 1   
   159  152  160 1   
   160  153  154 1   
   161  153  161 1   
   162  153  162 1   
   163  154  155 1   
   164  154  156 1   
   165  163  164 1   
   166  163  168 1   
   167  164  165 1   
   168  164  166 1   
   169  164  167 1   
   170  170  171 1   
   171  170  172 1   
   172  173  174 1   
   173  173  175 1   
   174  176  177 1   
   175  176  178 1   
   176  179  180 1   
   177  179  181 1   
   178  182  183 1   
   179  182  184 1   
@<TRIPOS>SUBSTRUCTURE
     1 MOL         1 TEMP              0 ****  ****    0 ROOT
