@<TRIPOS>MOLECULE
MOL
  184   179     1     0     0
SMALL
resp


@<TRIPOS>ATOM
      1 C1         -2.7210   -4.7260   -3.5270 c3        1 MOL     -0.420872
      2 C2         -4.0860   -4.9630   -2.8740 c         1 MOL      0.682508
      3 O1         -4.1920   -5.6790   -1.8570 o         1 MOL     -0.601316
      4 H1         -2.0850   -5.5970   -3.3670 hc        1 MOL      0.099371
      5 H2         -2.8520   -4.5650   -4.5970 hc        1 MOL      0.099371
      6 H3         -2.2510   -3.8480   -3.0820 hc        1 MOL      0.099371
      7 N1         -5.1200   -4.4410   -3.3990 n         1 MOL     -0.480036
      8 C3         -6.5100   -4.4900   -2.8120 c3        1 MOL      0.027762
      9 C4         -6.6360   -3.5560   -1.5570 c         1 MOL      0.325904
     10 O2         -6.7280   -2.3310   -1.6360 o         1 MOL     -0.437727
     11 C5         -7.5400   -4.0660   -3.8550 c3        1 MOL     -0.140587
     12 C6         -8.9390   -4.1120   -3.3180 c         1 MOL      0.705858
     13 O3         -9.4660   -5.1880   -3.2260 o         1 MOL     -0.728402
     14 O4         -9.4250   -3.0930   -2.8740 o         1 MOL     -0.728402
     15 H4         -5.0080   -4.0180   -4.3080 hn        1 MOL      0.288330
     16 H5         -6.8060   -5.5050   -2.5720 h1        1 MOL      0.082931
     17 H6         -7.4500   -4.7660   -4.6940 hc        1 MOL     -0.002594
     18 H7         -7.3890   -3.1120   -4.3450 hc        1 MOL     -0.002594
     19 N2         -6.7250   -4.2540   -0.4080 n         1 MOL     -0.119312
     20 C7         -6.5920   -3.7210    0.9270 c3        1 MOL      0.238372
     21 C8         -5.1850   -4.1490    1.5680 c         1 MOL      0.443244
     22 O5         -4.6400   -5.1540    1.2350 o         1 MOL     -0.515163
     23 C9         -7.8690   -4.0770    1.7800 c3        1 MOL     -0.378616
     24 H8         -6.8510   -5.2540   -0.4200 hn        1 MOL      0.185077
     25 H9         -6.5810   -2.6400    0.7930 h1        1 MOL      0.083434
     26 H10        -7.7800   -3.5830    2.7470 hc        1 MOL      0.085819
     27 H11        -8.7170   -3.7430    1.1750 hc        1 MOL      0.085819
     28 H12        -7.9560   -5.1450    1.9550 hc        1 MOL      0.085819
     29 N3         -4.5260   -3.3650    2.4290 n         1 MOL     -0.381247
     30 C10        -4.9950   -2.1420    2.9910 c3        1 MOL      0.007040
     31 C11        -4.9670   -0.8790    2.0950 c         1 MOL      0.311911
     32 O6         -4.0890   -0.7910    1.2390 o         1 MOL     -0.409060
     33 C12        -4.3220   -1.8900    4.3370 c3        1 MOL     -0.239644
     34 C13        -2.7680   -1.8480    4.2380 c         1 MOL      0.633594
     35 O7         -2.1860   -0.7620    3.9210 o         1 MOL     -0.625115
     36 O8         -2.1380   -2.8740    4.4230 o         1 MOL     -0.625115
     37 H13        -3.6050   -3.6660    2.7020 hn        1 MOL      0.327687
     38 H14        -6.0350   -2.4140    3.1630 h1        1 MOL      0.080324
     39 H15        -4.6270   -2.7740    4.9010 hc        1 MOL      0.059392
     40 H16        -4.5480   -0.9550    4.8440 hc        1 MOL      0.059392
     41 N4         -5.7240    0.2130    2.4100 n         1 MOL     -0.475131
     42 C14        -5.7700    1.4790    1.6950 c3        1 MOL     -0.032571
     43 C15        -6.6250    1.4440    0.4400 c         1 MOL      0.658294
     44 O9         -7.2640    0.4380    0.2330 o         1 MOL     -0.534985
     45 H17        -6.4310    0.2040    3.1430 hn        1 MOL      0.325115
     46 H18        -4.7630    1.7690    1.4160 h1        1 MOL      0.068774
     47 H19        -6.2340    2.2660    2.2810 h1        1 MOL      0.068774
     48 N5         -6.6720    2.4660   -0.3600 n         1 MOL     -0.535297
     49 C16        -5.9270    3.7610   -0.2960 c3        1 MOL      0.148515
     50 C17        -5.5060    4.3450   -1.6420 c         1 MOL      0.515614
     51 O10        -6.2650    4.1970   -2.6070 o         1 MOL     -0.510935
     52 C18        -6.8710    4.8290    0.3950 c3        1 MOL     -0.299206
     53 C19        -6.0220    5.5750    1.5280 c         1 MOL      0.537691
     54 N6         -6.3700    6.7710    1.9880 n         1 MOL     -0.727609
     55 O11        -4.9650    5.1250    2.0260 o         1 MOL     -0.501496
     56 H20        -7.3980    2.3270   -1.0500 hn        1 MOL      0.313838
     57 H21        -5.0080    3.5950    0.2770 h1        1 MOL      0.016819
     58 H22        -7.6920    4.3410    0.9130 hc        1 MOL      0.104392
     59 H23        -7.2700    5.5670   -0.2980 hc        1 MOL      0.104392
     60 H24        -7.2330    7.1920    1.6560 hn        1 MOL      0.357055
     61 H25        -5.8950    6.9230    2.8620 hn        1 MOL      0.357055
     62 N7         -4.3020    4.9060   -1.7500 n         1 MOL     -0.257651
     63 C20        -3.6630    5.3160   -2.9590 c3        1 MOL     -0.291315
     64 C21        -2.1900    5.8330   -2.8730 c         1 MOL      0.649242
     65 O12        -1.8980    6.9050   -3.4320 o         1 MOL     -0.551453
     66 H26        -3.8200    5.0650   -0.8770 hn        1 MOL      0.258053
     67 H27        -4.2970    6.1570   -3.2550 h1        1 MOL      0.131474
     68 H28        -3.6470    4.5310   -3.7140 h1        1 MOL      0.131474
     69 N8         -1.2410    5.1300   -2.2020 n         1 MOL     -0.453914
     70 C22         0.1970    5.5270   -2.0950 c3        1 MOL     -0.003186
     71 C23         1.0420    4.2180   -1.7380 c         1 MOL      0.353583
     72 O13         0.4180    3.1470   -1.4280 o         1 MOL     -0.481968
     73 C24         0.5390    6.5420   -1.0160 c3        1 MOL      0.540142
     74 C25         0.2380    7.9730   -1.4460 c3        1 MOL     -0.390186
     75 O14        -0.0360    6.1760    0.2480 oh        1 MOL     -0.673159
     76 H29        -1.5920    4.5060   -1.4840 hn        1 MOL      0.237958
     77 H30         0.5610    5.9140   -3.0430 h1        1 MOL      0.088007
     78 H31         1.6340    6.6000   -0.9100 h1        1 MOL     -0.054391
     79 H32         0.0970    5.2540    0.4980 ho        1 MOL      0.440924
     80 H33         0.6200    8.2330   -2.4350 hc        1 MOL      0.093867
     81 H34        -0.8330    8.1550   -1.5270 hc        1 MOL      0.093867
     82 H35         0.5610    8.6310   -0.6440 hc        1 MOL      0.093867
     83 N9          2.3670    4.1810   -1.9220 n         1 MOL     -0.279424
     84 C26         3.2610    3.1120   -1.5560 c3        1 MOL      0.011161
     85 C27         3.8160    3.4810   -0.1470 c         1 MOL      0.295926
     86 O15         4.2500    4.6360    0.1180 o         1 MOL     -0.536959
     87 C28         4.4020    3.0180   -2.5760 c3        1 MOL      0.076808
     88 C29         5.4670    1.8900   -2.2950 c3        1 MOL      0.237938
     89 C30         4.0240    2.8520   -4.1040 c3        1 MOL     -0.313897
     90 C31         6.6020    1.6900   -3.3820 c3        1 MOL     -0.212205
     91 H36         2.7590    5.0320   -2.3010 hn        1 MOL      0.226150
     92 H37         2.8200    2.1190   -1.4770 h1        1 MOL      0.182485
     93 H38         4.9920    3.9380   -2.5030 hc        1 MOL     -0.002457
     94 H39         4.9650    0.9180   -2.2990 hc        1 MOL     -0.063396
     95 H40         6.0490    2.1080   -1.3980 hc        1 MOL     -0.063396
     96 H41         3.1390    3.4190   -4.3820 hc        1 MOL      0.072287
     97 H42         4.8130    3.0650   -4.8370 hc        1 MOL      0.072287
     98 H43         3.7990    1.7920   -4.2300 hc        1 MOL      0.072287
     99 H44         6.1040    1.3540   -4.2950 hc        1 MOL      0.036730
    100 H45         7.0650    2.6480   -3.6310 hc        1 MOL      0.036730
    101 H46         7.4490    1.0550   -3.1410 hc        1 MOL      0.036730
    102 N10         3.8960    2.4650    0.7260 n         1 MOL     -0.137530
    103 C32         4.7320    2.4520    1.9190 c3        1 MOL      0.058837
    104 C33         5.7870    1.3320    2.0020 c         1 MOL      0.389843
    105 O16         6.6850    1.4820    2.7900 o         1 MOL     -0.520381
    106 C34         3.8300    2.4790    3.1680 c3        1 MOL     -0.208819
    107 C35         2.6030    1.6510    2.9930 c         1 MOL      0.921082
    108 O17         1.5520    2.2120    2.5930 o         1 MOL     -0.804848
    109 O18         2.4930    0.4750    3.4340 o         1 MOL     -0.804848
    110 H47         3.5920    1.5470    0.4380 hn        1 MOL      0.228088
    111 H48         5.3090    3.3840    1.8930 h1        1 MOL      0.076330
    112 H49         3.5450    3.4870    3.4810 hc        1 MOL      0.039277
    113 H50         4.3950    2.0210    3.9750 hc        1 MOL      0.039277
    114 N11         5.8210    0.3520    1.0450 n         1 MOL     -0.307771
    115 C36         6.8940   -0.6070    0.9840 c3        1 MOL      0.324539
    116 C37         6.3340   -2.0100    0.6130 c         1 MOL      0.174347
    117 O19         6.6820   -2.6230   -0.3740 o         1 MOL     -0.402347
    118 C38         7.9370   -0.0230    0.0450 c3        1 MOL     -0.204749
    119 C39         9.1800   -0.9000   -0.1300 ca        1 MOL      0.106376
    120 C40        10.0140   -1.2520    1.0080 ca        1 MOL     -0.164327
    121 C41         9.5810   -1.2510   -1.4870 ca        1 MOL     -0.164327
    122 C42        11.1930   -2.0160    0.7660 ca        1 MOL     -0.103259
    123 C43        10.8200   -1.8390   -1.6890 ca        1 MOL     -0.103259
    124 C44        11.6510   -2.1620   -0.5760 ca        1 MOL     -0.176545
    125 H51         5.0300    0.2630    0.4280 hn        1 MOL      0.210564
    126 H52         7.4080   -0.6850    1.9360 h1        1 MOL      0.002288
    127 H53         8.3640    0.9210    0.3890 hc        1 MOL      0.084314
    128 H54         7.4550    0.0040   -0.9330 hc        1 MOL      0.084314
    129 H55         9.7620   -1.0190    2.0300 ha        1 MOL      0.123365
    130 H56         9.1890   -0.7180   -2.3360 ha        1 MOL      0.123365
    131 H57        11.8310   -2.3920    1.5560 ha        1 MOL      0.105259
    132 H58        11.1540   -2.1910   -2.6590 ha        1 MOL      0.105259
    133 H59        12.6140   -2.6120   -0.7890 ha        1 MOL      0.103245
    134 N12         5.2470   -2.5060    1.2650 n         1 MOL     -0.010703
    135 C45         4.6860   -3.8610    1.0070 c3        1 MOL      0.035029
    136 C46         3.8060   -4.0510   -0.1980 c         1 MOL      0.333744
    137 O20         3.5500   -5.1790   -0.5950 o         1 MOL     -0.519609
    138 C47         3.9110   -4.2580    2.3200 c3        1 MOL     -0.223491
    139 C48         3.3880   -2.9010    2.8310 c3        1 MOL      0.185434
    140 C49         4.4950   -1.9670    2.4320 c3        1 MOL     -0.311200
    141 H60         5.5750   -4.4450    0.8320 h1        1 MOL      0.060799
    142 H61         3.1350   -5.0290    2.2540 hc        1 MOL      0.072750
    143 H62         4.6930   -4.5370    3.0290 hc        1 MOL      0.072750
    144 H63         2.4630   -2.6340    2.3140 hc        1 MOL      0.005418
    145 H64         3.1630   -2.9650    3.9010 hc        1 MOL      0.005418
    146 H65         4.0010   -1.0260    2.2210 h1        1 MOL      0.097782
    147 H66         5.1580   -1.7690    3.2700 h1        1 MOL      0.097782
    148 N13         3.3230   -2.9770   -0.7790 n         1 MOL      0.025148
    149 C50         2.8210   -2.8960   -2.1920 c3        1 MOL     -0.367025
    150 C51         3.9020   -3.4340   -3.2130 c         1 MOL      0.577072
    151 O21         3.4520   -4.0050   -4.2000 o         1 MOL     -0.549923
    152 C52         2.4490   -1.4770   -2.6010 c3        1 MOL      0.247829
    153 C53         1.4910   -0.6330   -1.6810 c3        1 MOL     -0.330965
    154 C54         2.1980   -0.3050   -0.3700 c         1 MOL      0.332853
    155 O22         1.5220   -0.2460    0.7250 o         1 MOL     -0.576828
    156 O23         3.4050   -0.0880   -0.3480 o         1 MOL     -0.576828
    157 H67         3.6200   -2.1390   -0.3000 hn        1 MOL      0.216995
    158 H68         1.9510   -3.5270   -2.3560 h1        1 MOL      0.164466
    159 H69         2.0420   -1.4450   -3.6170 hc        1 MOL     -0.023465
    160 H70         3.3810   -0.9300   -2.7550 hc        1 MOL     -0.023465
    161 H71         0.6700   -1.2900   -1.4150 hc        1 MOL      0.113162
    162 H72         1.1340    0.2270   -2.2460 hc        1 MOL      0.113162
    163 N14         5.2490   -3.3480   -3.0160 n         1 MOL     -0.256957
    164 C55         6.1960   -4.0160   -3.9040 c3        1 MOL     -0.131640
    165 H73         6.4980   -4.9670   -3.4640 h1        1 MOL      0.071802
    166 H74         5.7230   -4.1980   -4.8700 h1        1 MOL      0.071802
    167 H75         7.0730   -3.3850   -4.0420 h1        1 MOL      0.071802
    168 H76         5.5470   -2.9820   -2.1270 hn        1 MOL      0.161136
    169 Ca1        -0.0320    0.0360    2.6860 Ca        1 MOL      1.690992
    170 O24        -1.0250    1.5930    0.2440 oh        1 MOL     -0.781198
    171 H77        -1.8200    1.3560   -0.2310 ho        1 MOL      0.372336
    172 H78        -0.3910    1.7690   -0.4480 ho        1 MOL      0.372336
    173 O25        -2.2210    1.6460    3.0570 oh        1 MOL     -0.781198
    174 H79        -2.8440    2.2400    3.4810 ho        1 MOL      0.372336
    175 H80        -2.5140    0.7720    3.3040 ho        1 MOL      0.372336
    176 O26         0.1780    0.8790    5.4030 oh        1 MOL     -0.781198
    177 H81         0.0410    0.0880    5.9160 ho        1 MOL      0.372336
    178 H82        -0.1830    1.5830    5.9520 ho        1 MOL      0.372336
    179 O27         0.4120   -2.3500    3.8670 oh        1 MOL     -0.781198
    180 H83        -0.4520   -2.5760    4.2020 ho        1 MOL      0.372336
    181 H84         0.9870   -2.4070    4.6240 ho        1 MOL      0.372336
    182 O28        -1.5430   -1.4960    1.0300 oh        1 MOL     -0.781198
    183 H85        -1.3000   -1.6010    0.1070 ho        1 MOL      0.372336
    184 H86        -2.5030   -1.5170    1.0240 ho        1 MOL      0.372336
@<TRIPOS>BOND
     1    1    2 1   
     2    1    4 1   
     3    1    5 1   
     4    1    6 1   
     5    2    3 2   
     6    2    7 1   
     7    7    8 1   
     8    7   15 1   
     9    8    9 1   
    10    8   11 1   
    11    8   16 1   
    12    9   10 2   
    13    9   19 1   
    14   11   12 1   
    15   11   17 1   
    16   11   18 1   
    17   12   13 1   
    18   12   14 1   
    19   19   20 1   
    20   19   24 1   
    21   20   21 1   
    22   20   23 1   
    23   20   25 1   
    24   21   22 2   
    25   21   29 1   
    26   23   26 1   
    27   23   27 1   
    28   23   28 1   
    29   29   30 1   
    30   29   37 1   
    31   30   31 1   
    32   30   33 1   
    33   30   38 1   
    34   31   32 2   
    35   31   41 1   
    36   33   34 1   
    37   33   39 1   
    38   33   40 1   
    39   34   35 1   
    40   34   36 1   
    41   41   42 1   
    42   41   45 1   
    43   42   43 1   
    44   42   46 1   
    45   42   47 1   
    46   43   44 2   
    47   43   48 1   
    48   48   49 1   
    49   48   56 1   
    50   49   50 1   
    51   49   52 1   
    52   49   57 1   
    53   50   51 2   
    54   50   62 1   
    55   52   53 1   
    56   52   58 1   
    57   52   59 1   
    58   53   54 1   
    59   53   55 2   
    60   54   60 1   
    61   54   61 1   
    62   62   63 1   
    63   62   66 1   
    64   63   64 1   
    65   63   67 1   
    66   63   68 1   
    67   64   65 2   
    68   64   69 1   
    69   69   70 1   
    70   69   76 1   
    71   70   71 1   
    72   70   73 1   
    73   70   77 1   
    74   71   72 2   
    75   71   83 1   
    76   73   74 1   
    77   73   75 1   
    78   73   78 1   
    79   74   80 1   
    80   74   81 1   
    81   74   82 1   
    82   75   79 1   
    83   83   84 1   
    84   83   91 1   
    85   84   85 1   
    86   84   87 1   
    87   84   92 1   
    88   85   86 2   
    89   85  102 1   
    90   87   88 1   
    91   87   89 1   
    92   87   93 1   
    93   88   90 1   
    94   88   94 1   
    95   88   95 1   
    96   89   96 1   
    97   89   97 1   
    98   89   98 1   
    99   90   99 1   
   100   90  100 1   
   101   90  101 1   
   102  102  103 1   
   103  102  110 1   
   104  103  104 1   
   105  103  106 1   
   106  103  111 1   
   107  104  105 2   
   108  104  114 1   
   109  106  107 1   
   110  106  112 1   
   111  106  113 1   
   112  107  108 1   
   113  107  109 1   
   114  114  115 1   
   115  114  125 1   
   116  115  116 1   
   117  115  118 1   
   118  115  126 1   
   119  116  117 2   
   120  116  134 1   
   121  118  119 1   
   122  118  127 1   
   123  118  128 1   
   124  119  120 ar  
   125  119  121 ar  
   126  120  122 ar  
   127  120  129 1   
   128  121  123 ar  
   129  121  130 1   
   130  122  124 ar  
   131  122  131 1   
   132  123  124 ar  
   133  123  132 1   
   134  124  133 1   
   135  134  135 1   
   136  134  140 1   
   137  135  136 1   
   138  135  138 1   
   139  135  141 1   
   140  136  137 2   
   141  136  148 1   
   142  138  139 1   
   143  138  142 1   
   144  138  143 1   
   145  139  140 1   
   146  139  144 1   
   147  139  145 1   
   148  140  146 1   
   149  140  147 1   
   150  148  149 1   
   151  148  157 1   
   152  149  150 1   
   153  149  152 1   
   154  149  158 1   
   155  150  151 2   
   156  150  163 1   
   157  152  153 1   
   158  152  159 1   
   159  152  160 1   
   160  153  154 1   
   161  153  161 1   
   162  153  162 1   
   163  154  155 1   
   164  154  156 1   
   165  163  164 1   
   166  163  168 1   
   167  164  165 1   
   168  164  166 1   
   169  164  167 1   
   170  170  171 1   
   171  170  172 1   
   172  173  174 1   
   173  173  175 1   
   174  176  177 1   
   175  176  178 1   
   176  179  180 1   
   177  179  181 1   
   178  182  183 1   
   179  182  184 1   
@<TRIPOS>SUBSTRUCTURE
     1 MOL         1 TEMP              0 ****  ****    0 ROOT
