@<TRIPOS>MOLECULE
MOL
  184   179     1     0     0
SMALL
resp


@<TRIPOS>ATOM
      1 C1          3.9090   -2.7820    3.6790 c3        1 MOL     -0.406064
      2 C2          5.3810   -2.2150    3.4600 c         1 MOL      0.654563
      3 O1          5.6800   -1.0100    3.5630 o         1 MOL     -0.593447
      4 H1          3.8470   -3.7940    3.2810 hc        1 MOL      0.108021
      5 H2          3.6790   -2.7960    4.7450 hc        1 MOL      0.108021
      6 H3          3.1930   -2.1440    3.1610 hc        1 MOL      0.108021
      7 N1          6.3080   -3.1130    3.1640 n         1 MOL     -0.562678
      8 C3          7.6150   -2.6400    2.6600 c3        1 MOL      0.230177
      9 C4          7.6810   -2.0720    1.2790 c         1 MOL      0.620066
     10 O2          7.9680   -2.8370    0.3380 o         1 MOL     -0.543255
     11 C5          8.6760   -3.7020    2.9090 c3        1 MOL     -0.391248
     12 C6         10.1060   -3.3810    2.3150 c         1 MOL      0.767676
     13 O3         10.5150   -2.2230    2.1320 o         1 MOL     -0.729360
     14 O4         10.8890   -4.3520    2.1660 o         1 MOL     -0.729360
     15 H4          6.0520   -4.0810    3.0510 hn        1 MOL      0.317458
     16 H5          7.9420   -1.7840    3.2460 h1        1 MOL      0.014619
     17 H6          8.4410   -4.6660    2.4610 hc        1 MOL      0.056022
     18 H7          8.8910   -4.0620    3.9140 hc        1 MOL      0.056022
     19 N2          7.3210   -0.8280    1.2150 n         1 MOL     -0.662856
     20 C7          7.2180   -0.0930    0.0110 c3        1 MOL      0.345512
     21 C8          5.7880   -0.1570   -0.6310 c         1 MOL      0.505953
     22 O5          4.7920   -0.4970    0.0640 o         1 MOL     -0.472334
     23 C9          7.6150    1.3780    0.2450 c3        1 MOL     -0.278507
     24 H8          7.0680   -0.3440    2.0680 hn        1 MOL      0.357090
     25 H9          7.9590   -0.4370   -0.7020 h1        1 MOL      0.049560
     26 H10         7.6580    1.9400   -0.6870 hc        1 MOL      0.068998
     27 H11         7.0360    1.8710    1.0250 hc        1 MOL      0.068998
     28 H12         8.6640    1.4520    0.5420 hc        1 MOL      0.068998
     29 N3          5.7440    0.1940   -1.9610 n         1 MOL     -0.515136
     30 C10         4.5340    0.1390   -2.8380 c3        1 MOL      0.095121
     31 C11         4.1440    1.3930   -3.6070 c         1 MOL      0.563035
     32 O6          2.9860    1.7170   -3.8920 o         1 MOL     -0.529567
     33 C12         4.4520   -1.1050   -3.7310 c3        1 MOL     -0.139009
     34 C13         4.7650   -2.3960   -2.9740 c         1 MOL      0.644406
     35 O7          5.8370   -2.9750   -3.2040 o         1 MOL     -0.665338
     36 O8          3.9090   -2.8150   -2.1720 o         1 MOL     -0.665338
     37 H13         6.5910    0.4600   -2.4490 hn        1 MOL      0.266391
     38 H14         3.6680   -0.0120   -2.1860 h1        1 MOL      0.018450
     39 H15         5.0860   -1.0350   -4.6190 hc        1 MOL      0.007874
     40 H16         3.4010   -1.1720   -4.0350 hc        1 MOL      0.007874
     41 N4          5.1510    2.2150   -3.9840 n         1 MOL     -0.399939
     42 C14         5.0080    3.6050   -4.4230 c3        1 MOL     -0.349626
     43 C15         4.6220    4.4100   -3.1780 c         1 MOL      0.687345
     44 O9          5.2610    4.3160   -2.0890 o         1 MOL     -0.540624
     45 H17         6.0720    1.8410   -3.8160 hn        1 MOL      0.301182
     46 H18         4.2170    3.6130   -5.1700 h1        1 MOL      0.149822
     47 H19         5.9490    3.9740   -4.8240 h1        1 MOL      0.149822
     48 N5          3.5420    5.2100   -3.3920 n         1 MOL     -0.548648
     49 C16         3.1430    6.2160   -2.4210 c3        1 MOL      0.070005
     50 C17         2.4200    5.6260   -1.1660 c         1 MOL      0.518855
     51 O10         1.8070    4.5530   -1.1660 o         1 MOL     -0.430965
     52 C18         2.1280    7.1250   -3.1700 c3        1 MOL     -0.244213
     53 C19         1.9480    8.4460   -2.4200 c         1 MOL      0.657292
     54 N6          0.8210    8.6560   -1.7870 n         1 MOL     -0.756098
     55 O11         2.8250    9.3210   -2.3270 o         1 MOL     -0.591047
     56 H20         3.0500    5.1540   -4.2720 hn        1 MOL      0.337509
     57 H21         4.0110    6.7680   -2.0810 h1        1 MOL      0.055629
     58 H22         1.1750    6.6050   -3.2190 hc        1 MOL      0.092207
     59 H23         2.4610    7.2960   -4.1940 hc        1 MOL      0.092207
     60 H24         0.1920    7.8970   -1.6000 hn        1 MOL      0.346026
     61 H25         0.8090    9.3420   -1.0430 hn        1 MOL      0.346026
     62 N7          2.4080    6.4540   -0.0930 n         1 MOL     -0.426762
     63 C20         1.5710    6.1890    1.0870 c3        1 MOL     -0.135277
     64 C21         0.0290    6.2960    0.8270 c         1 MOL      0.589888
     65 O12        -0.4810    6.5430   -0.2680 o         1 MOL     -0.526732
     66 H26         3.0190    7.2560   -0.1310 hn        1 MOL      0.292524
     67 H27         1.8940    6.8180    1.9130 h1        1 MOL      0.104581
     68 H28         1.6690    5.1370    1.3550 h1        1 MOL      0.104581
     69 N8         -0.7080    6.1590    1.8560 n         1 MOL     -0.482807
     70 C22        -2.2410    6.0990    1.8750 c3        1 MOL     -0.028314
     71 C23        -2.7850    4.7980    2.4070 c         1 MOL      0.598024
     72 O13        -3.9870    4.6220    2.4770 o         1 MOL     -0.599634
     73 C24        -2.7720    7.2440    2.7080 c3        1 MOL      0.327058
     74 C25        -2.4470    7.2000    4.1650 c3        1 MOL     -0.144507
     75 O14        -2.2120    8.3800    2.1220 oh        1 MOL     -0.622044
     76 H29        -0.2620    6.0110    2.7510 hn        1 MOL      0.260353
     77 H30        -2.7210    6.1390    0.8980 h1        1 MOL      0.128607
     78 H31        -3.8370    7.4300    2.6310 h1        1 MOL      0.055344
     79 H32        -1.3170    8.5650    2.4210 ho        1 MOL      0.372922
     80 H33        -1.7370    6.4410    4.4970 hc        1 MOL      0.036390
     81 H34        -2.0740    8.1450    4.5500 hc        1 MOL      0.036390
     82 H35        -3.3380    7.0810    4.7850 hc        1 MOL      0.036390
     83 N9         -1.9150    3.8910    2.9450 n         1 MOL     -0.446086
     84 C26        -2.2930    2.4700    3.2030 c3        1 MOL      0.008499
     85 C27        -1.6660    1.5400    2.1900 c         1 MOL      0.535934
     86 O15        -0.4280    1.5690    1.9470 o         1 MOL     -0.508746
     87 C28        -2.1270    2.0250    4.6460 c3        1 MOL     -0.002883
     88 C29        -2.9710    2.8810    5.5970 c3        1 MOL     -0.009919
     89 C30        -2.4940    0.5900    4.8280 c3        1 MOL      0.036836
     90 C31        -4.5220    2.8560    5.5410 c3        1 MOL     -0.252006
     91 H36        -0.9450    4.1590    2.9980 hn        1 MOL      0.270819
     92 H37        -3.3580    2.2980    3.0160 h1        1 MOL      0.095492
     93 H38        -1.0710    2.1750    4.8860 hc        1 MOL      0.041347
     94 H39        -2.7790    3.9270    5.3600 hc        1 MOL      0.015925
     95 H40        -2.5540    2.8640    6.6030 hc        1 MOL      0.015925
     96 H41        -2.4770    0.2030    5.8420 hc        1 MOL     -0.013265
     97 H42        -3.4680    0.3480    4.3970 hc        1 MOL     -0.013265
     98 H43        -1.9240   -0.0600    4.1560 hc        1 MOL     -0.013265
     99 H44        -4.9250    3.7680    5.9850 hc        1 MOL      0.070577
    100 H45        -4.9880    2.7980    4.5630 hc        1 MOL      0.070577
    101 H46        -4.9110    1.9260    5.9570 hc        1 MOL      0.070577
    102 N10        -2.4780    0.6540    1.5430 n         1 MOL     -0.486684
    103 C32        -2.1390   -0.3400    0.5310 c3        1 MOL      0.100255
    104 C33        -3.3550   -0.6690   -0.3700 c         1 MOL      0.463247
    105 O16        -3.4150   -1.7300   -1.0160 o         1 MOL     -0.431735
    106 C34        -1.6110   -1.6610    1.2030 c3        1 MOL      0.061125
    107 C35        -0.5130   -2.4080    0.3490 c         1 MOL      0.645046
    108 O17         0.1850   -3.3030    0.8680 o         1 MOL     -0.750569
    109 O18        -0.2970   -2.1640   -0.8680 o         1 MOL     -0.750569
    110 H47        -3.4590    0.6190    1.7990 hn        1 MOL      0.238916
    111 H48        -1.3730    0.0870   -0.1170 h1        1 MOL      0.091443
    112 H49        -2.4610   -2.3340    1.3160 hc        1 MOL      0.024190
    113 H50        -1.2430   -1.5430    2.2140 hc        1 MOL      0.024190
    114 N11        -4.4300    0.1610   -0.3540 n         1 MOL     -0.479608
    115 C36        -5.7430    0.0190   -0.9800 c3        1 MOL      0.324194
    116 C37        -6.3470   -1.3340   -0.4650 c         1 MOL      0.273660
    117 O19        -6.3520   -1.5300    0.7600 o         1 MOL     -0.494999
    118 C38        -6.5700    1.2020   -0.6930 c3        1 MOL     -0.187863
    119 C39        -7.9690    1.3890   -1.3980 ca        1 MOL      0.032367
    120 C40        -8.0720    2.1410   -2.6290 ca        1 MOL     -0.172124
    121 C41        -9.0900    0.6790   -0.8290 ca        1 MOL     -0.172124
    122 C42        -9.3230    2.2010   -3.2200 ca        1 MOL     -0.072260
    123 C43       -10.2560    0.6240   -1.5760 ca        1 MOL     -0.072260
    124 C44       -10.4410    1.3890   -2.8100 ca        1 MOL     -0.182092
    125 H51        -4.3300    1.0000    0.2030 hn        1 MOL      0.222060
    126 H52        -5.6280    0.0220   -2.0720 h1        1 MOL     -0.020325
    127 H53        -5.9850    2.1090   -0.8780 hc        1 MOL      0.087051
    128 H54        -6.8030    1.1730    0.3670 hc        1 MOL      0.087051
    129 H55        -7.2220    2.7160   -2.9560 ha        1 MOL      0.142756
    130 H56        -9.0630    0.2350    0.1530 ha        1 MOL      0.142756
    131 H57        -9.4440    2.7850   -4.1200 ha        1 MOL      0.098927
    132 H58       -11.0630    0.0050   -1.2060 ha        1 MOL      0.098927
    133 H59       -11.3970    1.3800   -3.3050 ha        1 MOL      0.131973
    134 N12        -6.8570   -2.2150   -1.3350 n         1 MOL     -0.152426
    135 C45        -7.6070   -3.4070   -0.8880 c3        1 MOL      0.151903
    136 C46        -6.7270   -4.4820   -0.2310 c         1 MOL      0.251380
    137 O20        -7.2600   -5.3350    0.5120 o         1 MOL     -0.532867
    138 C47        -8.2120   -3.8330   -2.1570 c3        1 MOL      0.124797
    139 C48        -8.4820   -2.6700   -3.0260 c3        1 MOL     -0.226106
    140 C49        -7.3700   -1.7080   -2.6320 c3        1 MOL      0.187947
    141 H60        -8.4600   -3.1440   -0.2630 h1        1 MOL      0.034226
    142 H61        -7.5640   -4.5950   -2.6050 hc        1 MOL     -0.007998
    143 H62        -9.1060   -4.4140   -1.9230 hc        1 MOL     -0.007998
    144 H63        -8.4320   -2.9490   -4.0720 hc        1 MOL      0.051848
    145 H64        -9.4400   -2.2150   -2.7540 hc        1 MOL      0.051848
    146 H65        -6.5450   -1.8250   -3.3350 h1        1 MOL      0.012313
    147 H66        -7.7490   -0.6830   -2.7060 h1        1 MOL      0.012313
    148 N13        -5.3890   -4.3450   -0.3850 n         1 MOL     -0.081203
    149 C50        -4.3230   -5.1890    0.1670 c3        1 MOL     -0.049397
    150 C51        -3.9870   -5.0630    1.6730 c         1 MOL      0.354221
    151 O21        -3.2340   -5.8720    2.2450 o         1 MOL     -0.522061
    152 C52        -3.2160   -5.1810   -0.8080 c3        1 MOL      0.127518
    153 C53        -2.0070   -6.0720   -0.5230 c3        1 MOL     -0.312841
    154 C54        -1.0530   -6.0420   -1.7290 c         1 MOL      0.750006
    155 O22        -1.0700   -6.8970   -2.7050 o         1 MOL     -0.729966
    156 O23        -0.1100   -5.2190   -1.5940 o         1 MOL     -0.729966
    157 H67        -5.1040   -3.5560   -0.9370 hn        1 MOL      0.044356
    158 H68        -4.7160   -6.1910   -0.0080 h1        1 MOL      0.100766
    159 H69        -2.8700   -4.1590   -0.9740 hc        1 MOL     -0.000666
    160 H70        -3.5890   -5.5390   -1.7660 hc        1 MOL     -0.000666
    161 H71        -2.3230   -7.0940   -0.3080 hc        1 MOL      0.074780
    162 H72        -1.4800   -5.7920    0.3800 hc        1 MOL      0.074780
    163 N14        -4.6130   -4.1710    2.4020 n         1 MOL     -0.113139
    164 C55        -4.4260   -4.2300    3.8460 c3        1 MOL     -0.183732
    165 H73        -3.9990   -3.2900    4.1950 h1        1 MOL      0.081167
    166 H74        -5.3890   -4.3930    4.3310 h1        1 MOL      0.081167
    167 H75        -3.7510   -5.0490    4.0930 h1        1 MOL      0.081167
    168 H76        -5.1980   -3.4500    2.0060 hn        1 MOL      0.210514
    169 Ca1         1.9050   -3.7580   -0.9980 Ca        1 MOL      1.784850
    170 O24         1.1190   -3.0370   -3.6440 oh        1 MOL     -0.831567
    171 H77         0.8890   -3.3340   -4.5160 ho        1 MOL      0.402983
    172 H78         1.2660   -2.1000   -3.7290 ho        1 MOL      0.402983
    173 O25         1.7630   -5.9370    1.2090 oh        1 MOL     -0.831567
    174 H79         0.8880   -6.0040    1.5860 ho        1 MOL      0.402983
    175 H80         2.3530   -6.2090    1.9050 ho        1 MOL      0.402983
    176 O26         2.3580   -1.2150    0.0820 oh        1 MOL     -0.831567
    177 H81         1.8550   -0.4340   -0.1650 ho        1 MOL      0.402983
    178 H82         3.2760   -0.9670   -0.0560 ho        1 MOL      0.402983
    179 O27         4.0740   -3.9660    0.4070 oh        1 MOL     -0.831567
    180 H83         4.7350   -3.5050   -0.1020 ho        1 MOL      0.402983
    181 H84         4.5730   -4.6110    0.9200 ho        1 MOL      0.402983
    182 O28         2.7210   -5.9450   -2.3520 oh        1 MOL     -0.831567
    183 H85         3.4330   -6.0040   -2.9900 ho        1 MOL      0.402983
    184 H86         2.1510   -6.6840   -2.5690 ho        1 MOL      0.402983
@<TRIPOS>BOND
     1    1    2 1   
     2    1    4 1   
     3    1    5 1   
     4    1    6 1   
     5    2    3 2   
     6    2    7 1   
     7    7    8 1   
     8    7   15 1   
     9    8    9 1   
    10    8   11 1   
    11    8   16 1   
    12    9   10 2   
    13    9   19 1   
    14   11   12 1   
    15   11   17 1   
    16   11   18 1   
    17   12   13 1   
    18   12   14 1   
    19   19   20 1   
    20   19   24 1   
    21   20   21 1   
    22   20   23 1   
    23   20   25 1   
    24   21   22 2   
    25   21   29 1   
    26   23   26 1   
    27   23   27 1   
    28   23   28 1   
    29   29   30 1   
    30   29   37 1   
    31   30   31 1   
    32   30   33 1   
    33   30   38 1   
    34   31   32 2   
    35   31   41 1   
    36   33   34 1   
    37   33   39 1   
    38   33   40 1   
    39   34   35 1   
    40   34   36 1   
    41   41   42 1   
    42   41   45 1   
    43   42   43 1   
    44   42   46 1   
    45   42   47 1   
    46   43   44 2   
    47   43   48 1   
    48   48   49 1   
    49   48   56 1   
    50   49   50 1   
    51   49   52 1   
    52   49   57 1   
    53   50   51 2   
    54   50   62 1   
    55   52   53 1   
    56   52   58 1   
    57   52   59 1   
    58   53   54 1   
    59   53   55 2   
    60   54   60 1   
    61   54   61 1   
    62   62   63 1   
    63   62   66 1   
    64   63   64 1   
    65   63   67 1   
    66   63   68 1   
    67   64   65 2   
    68   64   69 1   
    69   69   70 1   
    70   69   76 1   
    71   70   71 1   
    72   70   73 1   
    73   70   77 1   
    74   71   72 2   
    75   71   83 1   
    76   73   74 1   
    77   73   75 1   
    78   73   78 1   
    79   74   80 1   
    80   74   81 1   
    81   74   82 1   
    82   75   79 1   
    83   83   84 1   
    84   83   91 1   
    85   84   85 1   
    86   84   87 1   
    87   84   92 1   
    88   85   86 2   
    89   85  102 1   
    90   87   88 1   
    91   87   89 1   
    92   87   93 1   
    93   88   90 1   
    94   88   94 1   
    95   88   95 1   
    96   89   96 1   
    97   89   97 1   
    98   89   98 1   
    99   90   99 1   
   100   90  100 1   
   101   90  101 1   
   102  102  103 1   
   103  102  110 1   
   104  103  104 1   
   105  103  106 1   
   106  103  111 1   
   107  104  105 2   
   108  104  114 1   
   109  106  107 1   
   110  106  112 1   
   111  106  113 1   
   112  107  108 1   
   113  107  109 1   
   114  114  115 1   
   115  114  125 1   
   116  115  116 1   
   117  115  118 1   
   118  115  126 1   
   119  116  117 2   
   120  116  134 1   
   121  118  119 1   
   122  118  127 1   
   123  118  128 1   
   124  119  120 ar  
   125  119  121 ar  
   126  120  122 ar  
   127  120  129 1   
   128  121  123 ar  
   129  121  130 1   
   130  122  124 ar  
   131  122  131 1   
   132  123  124 ar  
   133  123  132 1   
   134  124  133 1   
   135  134  135 1   
   136  134  140 1   
   137  135  136 1   
   138  135  138 1   
   139  135  141 1   
   140  136  137 2   
   141  136  148 1   
   142  138  139 1   
   143  138  142 1   
   144  138  143 1   
   145  139  140 1   
   146  139  144 1   
   147  139  145 1   
   148  140  146 1   
   149  140  147 1   
   150  148  149 1   
   151  148  157 1   
   152  149  150 1   
   153  149  152 1   
   154  149  158 1   
   155  150  151 2   
   156  150  163 1   
   157  152  153 1   
   158  152  159 1   
   159  152  160 1   
   160  153  154 1   
   161  153  161 1   
   162  153  162 1   
   163  154  155 1   
   164  154  156 1   
   165  163  164 1   
   166  163  168 1   
   167  164  165 1   
   168  164  166 1   
   169  164  167 1   
   170  170  171 1   
   171  170  172 1   
   172  173  174 1   
   173  173  175 1   
   174  176  177 1   
   175  176  178 1   
   176  179  180 1   
   177  179  181 1   
   178  182  183 1   
   179  182  184 1   
@<TRIPOS>SUBSTRUCTURE
     1 MOL         1 TEMP              0 ****  ****    0 ROOT
