@<TRIPOS>MOLECULE
MOL
  178   175     1     0     0
SMALL
resp


@<TRIPOS>ATOM
      1 C1          1.2870    7.0660   -1.5760 c3        1 MOL     -0.394546
      2 C2          2.6860    6.8760   -0.9580 c         1 MOL      0.725316
      3 O1          2.9170    7.3300    0.1330 o         1 MOL     -0.594835
      4 H1          1.2450    6.5630   -2.5420 hc        1 MOL      0.094538
      5 H2          0.5350    6.6400   -0.9120 hc        1 MOL      0.094538
      6 H3          1.0900    8.1300   -1.7120 hc        1 MOL      0.094538
      7 N1          3.5670    6.2030   -1.6770 n         1 MOL     -0.657648
      8 C3          4.9270    5.9540   -1.2260 c3        1 MOL      0.403800
      9 C4          4.9760    4.7190   -0.3330 c         1 MOL      0.588518
     10 O2          5.2700    3.6240   -0.7720 o         1 MOL     -0.540870
     11 C5          5.7450    5.8610   -2.4910 c3        1 MOL     -0.253998
     12 C6          7.2470    5.9180   -2.1510 c         1 MOL      0.743380
     13 O3          7.6670    5.3240   -1.1600 o         1 MOL     -0.740712
     14 O4          7.9580    6.6590   -2.8390 o         1 MOL     -0.740712
     15 H4          3.3430    5.8830   -2.6080 hn        1 MOL      0.323102
     16 H5          5.3560    6.8040   -0.7040 h1        1 MOL     -0.001337
     17 H6          5.4710    6.6620   -3.1730 hc        1 MOL     -0.005565
     18 H7          5.4800    4.8880   -2.8980 hc        1 MOL     -0.005565
     19 N2          4.4660    4.9350    0.8650 n         1 MOL     -0.835729
     20 C7          4.5120    3.9580    1.9610 c3        1 MOL      0.909436
     21 C8          3.0900    3.5090    2.4930 c         1 MOL      0.231932
     22 O5          2.1110    4.2200    2.1740 o         1 MOL     -0.514477
     23 C9          5.4610    4.4640    3.0950 c3        1 MOL     -0.387065
     24 H8          3.9980    5.8140    1.0300 hn        1 MOL      0.305093
     25 H9          4.9590    3.0050    1.6520 h1        1 MOL     -0.133152
     26 H10         6.4370    3.9740    3.0280 hc        1 MOL      0.073328
     27 H11         5.6900    5.5230    3.0030 hc        1 MOL      0.073328
     28 H12         4.9840    4.3470    4.0740 hc        1 MOL      0.073328
     29 N3          2.9300    2.4230    3.2450 n         1 MOL     -0.398786
     30 C10         3.9560    1.3830    3.7250 c3        1 MOL      0.119486
     31 C11         4.2060    0.3820    2.5980 c         1 MOL      0.360384
     32 O6          3.2350   -0.0720    2.0220 o         1 MOL     -0.274188
     33 C12         3.5150    0.6220    4.9430 c3        1 MOL     -0.330348
     34 C13         2.0660    0.0710    4.9560 c         1 MOL      0.749675
     35 O7          1.3200    0.1230    3.9900 o         1 MOL     -0.706055
     36 O8          1.6400   -0.3050    6.0440 o         1 MOL     -0.706055
     37 H13         1.9830    2.0710    3.2300 hn        1 MOL      0.299219
     38 H14         4.8990    1.8920    3.9370 h1        1 MOL      0.000980
     39 H15         3.6160    1.3240    5.7680 hc        1 MOL      0.088252
     40 H16         4.2410   -0.1690    5.1430 hc        1 MOL      0.088252
     41 N4          5.4620   -0.1170    2.4660 n         1 MOL     -0.551532
     42 C14         5.7670   -1.1210    1.4490 c3        1 MOL      0.249674
     43 C15         6.3580   -0.5270    0.2510 c         1 MOL      0.421328
     44 O9          6.4890    0.7060    0.1090 o         1 MOL     -0.414465
     45 H17         6.1570    0.3090    3.0630 hn        1 MOL      0.328971
     46 H18         4.8900   -1.6920    1.1380 h1        1 MOL     -0.019115
     47 H19         6.4660   -1.8570    1.8710 h1        1 MOL     -0.019115
     48 N5          6.7770   -1.4010   -0.7210 n         1 MOL     -0.429596
     49 C16         6.6950   -2.8460   -0.7250 c3        1 MOL      0.079735
     50 C17         5.3930   -3.3120   -1.3920 c         1 MOL      0.666048
     51 O10         4.3910   -2.5800   -1.4430 o         1 MOL     -0.486376
     52 C18         7.9520   -3.3830   -1.4880 c3        1 MOL     -0.176419
     53 C19         7.9280   -3.1010   -2.9900 c         1 MOL      0.489885
     54 N6          7.6660   -4.0430   -3.8930 n         1 MOL     -0.632611
     55 O11         7.9770   -1.9240   -3.3940 o         1 MOL     -0.466611
     56 H20         7.2350   -1.0040   -1.5340 hn        1 MOL      0.274647
     57 H21         6.7930   -3.1980    0.3040 h1        1 MOL      0.029994
     58 H22         8.0750   -4.4590   -1.4170 hc        1 MOL      0.061540
     59 H23         8.8060   -2.9300   -0.9840 hc        1 MOL      0.061540
     60 H24         7.6140   -5.0180   -3.6290 hn        1 MOL      0.328447
     61 H25         8.0130   -3.7280   -4.7880 hn        1 MOL      0.328447
     62 N7          5.3160   -4.5670   -1.8320 n         1 MOL     -0.595855
     63 C20         4.2900   -4.9580   -2.8150 c3        1 MOL     -0.226521
     64 C21         3.1260   -5.6560   -2.1630 c         1 MOL      0.648400
     65 O12         2.6130   -6.6370   -2.6500 o         1 MOL     -0.543520
     66 H26         6.0040   -5.2730   -1.5940 hn        1 MOL      0.341017
     67 H27         4.6580   -5.7570   -3.4650 h1        1 MOL      0.141694
     68 H28         3.9730   -4.0750   -3.3640 h1        1 MOL      0.141694
     69 N8          2.5560   -5.0590   -1.0960 n         1 MOL     -0.480064
     70 C22         1.2490   -5.4300   -0.5640 c3        1 MOL     -0.324557
     71 C23         0.2400   -4.2290   -0.4590 c         1 MOL      0.692812
     72 O13         0.2740   -3.4150    0.4430 o         1 MOL     -0.473637
     73 C24         1.2680   -6.2020    0.8040 c3        1 MOL      0.339148
     74 C25         2.0640   -7.5420    0.6590 c3        1 MOL     -0.460691
     75 O14         1.8600   -5.4790    1.9390 oh        1 MOL     -0.534324
     76 H29         2.9110   -4.1980   -0.6950 hn        1 MOL      0.281895
     77 H30         0.7850   -6.1390   -1.2430 h1        1 MOL      0.136289
     78 H31         0.2510   -6.4470    1.1030 h1        1 MOL      0.121812
     79 H32         2.8030   -5.5130    1.7470 ho        1 MOL      0.314241
     80 H33         3.1410   -7.3800    0.6440 hc        1 MOL      0.124870
     81 H34         1.9440   -8.1420    1.5670 hc        1 MOL      0.124870
     82 H35         1.7870   -8.1250   -0.2200 hc        1 MOL      0.124870
     83 N9         -0.7230   -4.2550   -1.3910 n         1 MOL     -0.470210
     84 C26        -1.8850   -3.3540   -1.4540 c3        1 MOL     -0.199391
     85 C27        -2.8060   -3.6200   -0.2440 c         1 MOL      0.514257
     86 O15        -3.3290   -4.7120   -0.1170 o         1 MOL     -0.557384
     87 C28        -2.5520   -3.3580   -2.8680 c3        1 MOL      0.265831
     88 C29        -3.6080   -2.2440   -2.9780 c3        1 MOL      0.015812
     89 C30        -1.5150   -3.1810   -3.9580 c3        1 MOL     -0.286083
     90 C31        -4.5400   -2.4690   -4.1460 c3        1 MOL     -0.290300
     91 H36        -0.6220   -5.0610   -2.0020 hn        1 MOL      0.314881
     92 H37        -1.3650   -2.4270   -1.2120 h1        1 MOL      0.099195
     93 H38        -2.9460   -4.3690   -3.0120 hc        1 MOL      0.007400
     94 H39        -3.1620   -1.2560   -3.0880 hc        1 MOL      0.040883
     95 H40        -4.1930   -2.1570   -2.0650 hc        1 MOL      0.040883
     96 H41        -0.8600   -4.0560   -3.9800 hc        1 MOL      0.065629
     97 H42        -2.1050   -3.2190   -4.8780 hc        1 MOL      0.065629
     98 H43        -0.9130   -2.2770   -3.8910 hc        1 MOL      0.065629
     99 H44        -3.9810   -2.4680   -5.0840 hc        1 MOL      0.056816
    100 H45        -5.1010   -3.3920   -4.0400 hc        1 MOL      0.056816
    101 H46        -5.2400   -1.6370   -4.0910 hc        1 MOL      0.056816
    102 N10        -3.1310   -2.5820    0.4780 n         1 MOL     -0.472955
    103 C32        -3.9820   -2.7570    1.6880 c3        1 MOL      0.028776
    104 C33        -5.2830   -1.9270    1.7490 c         1 MOL      0.465470
    105 O16        -6.1130   -2.1740    2.6230 o         1 MOL     -0.563328
    106 C34        -3.1900   -2.3890    2.9830 c3        1 MOL     -0.077635
    107 C35        -1.8290   -3.0790    2.8670 c         1 MOL      0.721289
    108 O17        -0.8100   -2.3870    3.0800 o         1 MOL     -0.692772
    109 O18        -1.7950   -4.3300    2.9090 o         1 MOL     -0.692772
    110 H47        -2.8030   -1.6560    0.2410 hn        1 MOL      0.378213
    111 H48        -4.2850   -3.7970    1.8560 h1        1 MOL      0.106287
    112 H49        -3.7570   -2.7560    3.8360 hc        1 MOL      0.006752
    113 H50        -3.0060   -1.3190    3.0330 hc        1 MOL      0.006752
    114 N11        -5.4620   -1.0040    0.8270 n         1 MOL     -0.433348
    115 C36        -6.6550   -0.2110    0.6260 c3        1 MOL      0.301381
    116 C37        -6.3990    1.3080    0.3470 c         1 MOL      0.291073
    117 O19        -6.6300    1.7600   -0.7480 o         1 MOL     -0.475499
    118 C38        -7.6570   -0.8860   -0.3970 c3        1 MOL     -0.188671
    119 C39        -9.0140   -0.3600   -0.4660 ca        1 MOL      0.149464
    120 C40        -9.6110    0.1350   -1.6690 ca        1 MOL     -0.184841
    121 C41        -9.7860   -0.2750    0.7220 ca        1 MOL     -0.184841
    122 C42       -10.8840    0.7310   -1.6850 ca        1 MOL     -0.100616
    123 C43       -11.0860    0.2530    0.7100 ca        1 MOL     -0.100616
    124 C44       -11.6860    0.7200   -0.4920 ca        1 MOL     -0.176156
    125 H51        -4.7400   -0.8570    0.1410 hn        1 MOL      0.340401
    126 H52        -7.1990   -0.2850    1.5730 h1        1 MOL      0.008678
    127 H53        -7.7790   -1.9540   -0.1980 hc        1 MOL      0.069089
    128 H54        -7.2440   -0.9330   -1.3990 hc        1 MOL      0.069089
    129 H55        -9.0900   -0.0300   -2.5990 ha        1 MOL      0.115206
    130 H56        -9.3300   -0.6260    1.6350 ha        1 MOL      0.115206
    131 H57       -11.2930    1.2350   -2.5490 ha        1 MOL      0.106204
    132 H58       -11.5910    0.3950    1.6520 ha        1 MOL      0.106204
    133 H59       -12.6840    1.1380   -0.5030 ha        1 MOL      0.112733
    134 N12        -5.6920    1.9870    1.2640 n         1 MOL     -0.066382
    135 C45        -5.4420    3.4100    1.0610 c3        1 MOL     -0.014648
    136 C46        -4.5850    3.8490   -0.1350 c         1 MOL      0.156833
    137 O20        -4.4960    5.0050   -0.3910 o         1 MOL     -0.460530
    138 C47        -4.8790    4.0060    2.3290 c3        1 MOL     -0.104059
    139 C48        -5.1600    2.9460    3.3530 c3        1 MOL     -0.002285
    140 C49        -5.3440    1.6230    2.6450 c3        1 MOL     -0.031073
    141 H60        -6.3950    3.9170    0.8880 h1        1 MOL      0.097437
    142 H61        -3.8000    4.1040    2.2950 hc        1 MOL      0.083385
    143 H62        -5.1900    4.9790    2.6950 hc        1 MOL      0.083385
    144 H63        -4.4100    2.9880    4.1520 hc        1 MOL      0.017415
    145 H64        -6.1130    3.1840    3.8140 hc        1 MOL      0.017415
    146 H65        -4.4610    0.9820    2.5940 h1        1 MOL      0.055174
    147 H66        -6.0880    1.0320    3.1880 h1        1 MOL      0.055174
    148 N13        -3.9700    2.9140   -0.9100 n         1 MOL      0.064493
    149 C50        -3.3240    3.1770   -2.1900 c3        1 MOL     -0.086779
    150 C51        -4.2310    3.4760   -3.3820 c         1 MOL      0.457063
    151 O21        -3.9090    4.2360   -4.2780 o         1 MOL     -0.566953
    152 C52        -2.3120    2.0500   -2.5920 c3        1 MOL      0.066502
    153 C53        -1.4820    1.6130   -1.3450 c3        1 MOL     -0.351413
    154 C54        -1.9880    0.2840   -0.6470 c         1 MOL      0.729389
    155 O22        -1.1340   -0.4510   -0.0420 o         1 MOL     -0.750972
    156 O23        -3.1840    0.0080   -0.6190 o         1 MOL     -0.750972
    157 H67        -3.9460    1.9530   -0.5920 hn        1 MOL      0.122359
    158 H68        -2.7350    4.0950   -2.1630 h1        1 MOL      0.071295
    159 H69        -1.5520    2.4710   -3.2510 hc        1 MOL      0.014538
    160 H70        -2.8110    1.2310   -3.1060 hc        1 MOL      0.014538
    161 H71        -1.5450    2.4050   -0.5980 hc        1 MOL      0.106479
    162 H72        -0.5200    1.3750   -1.7740 hc        1 MOL      0.106479
    163 N14        -5.3670    2.8730   -3.3210 n         1 MOL     -0.144628
    164 C55        -6.3230    2.7460   -4.4360 c3        1 MOL     -0.185961
    165 H73        -6.0290    3.4140   -5.2450 h1        1 MOL      0.081470
    166 H74        -6.3260    1.7180   -4.7970 h1        1 MOL      0.081470
    167 H75        -7.3230    3.0130   -4.0910 h1        1 MOL      0.081470
    168 H76        -5.5160    2.2580   -2.5340 hn        1 MOL      0.174212
    169 Ca1         0.7510   -1.0430    1.6700 Ca        1 MOL      1.652716
    170 O24         0.8020    1.6400    1.1200 oh        1 MOL     -0.912675
    171 H77         1.0920    2.0870    0.3200 ho        1 MOL      0.434837
    172 H78        -0.0230    2.0670    1.3440 ho        1 MOL      0.434837
    173 O25         2.2520   -0.7660   -0.5210 oh        1 MOL     -0.912675
    174 H79         2.5760   -1.3390   -1.2100 ho        1 MOL      0.434837
    175 H80         2.6810    0.0800   -0.6910 ho        1 MOL      0.434837
    176 O26         2.1110   -3.0540    3.0440 oh        1 MOL     -0.912675
    177 H81         2.4980   -3.4520    3.8290 ho        1 MOL      0.434837
    178 H82         2.0990   -3.7680    2.4040 ho        1 MOL      0.434837
@<TRIPOS>BOND
     1    1    2 1   
     2    1    4 1   
     3    1    5 1   
     4    1    6 1   
     5    2    3 2   
     6    2    7 1   
     7    7    8 1   
     8    7   15 1   
     9    8    9 1   
    10    8   11 1   
    11    8   16 1   
    12    9   10 2   
    13    9   19 1   
    14   11   12 1   
    15   11   17 1   
    16   11   18 1   
    17   12   13 1   
    18   12   14 1   
    19   19   20 1   
    20   19   24 1   
    21   20   21 1   
    22   20   23 1   
    23   20   25 1   
    24   21   22 2   
    25   21   29 1   
    26   23   26 1   
    27   23   27 1   
    28   23   28 1   
    29   29   30 1   
    30   29   37 1   
    31   30   31 1   
    32   30   33 1   
    33   30   38 1   
    34   31   32 2   
    35   31   41 1   
    36   33   34 1   
    37   33   39 1   
    38   33   40 1   
    39   34   35 1   
    40   34   36 1   
    41   41   42 1   
    42   41   45 1   
    43   42   43 1   
    44   42   46 1   
    45   42   47 1   
    46   43   44 2   
    47   43   48 1   
    48   48   49 1   
    49   48   56 1   
    50   49   50 1   
    51   49   52 1   
    52   49   57 1   
    53   50   51 2   
    54   50   62 1   
    55   52   53 1   
    56   52   58 1   
    57   52   59 1   
    58   53   54 1   
    59   53   55 2   
    60   54   60 1   
    61   54   61 1   
    62   62   63 1   
    63   62   66 1   
    64   63   64 1   
    65   63   67 1   
    66   63   68 1   
    67   64   65 2   
    68   64   69 1   
    69   69   70 1   
    70   69   76 1   
    71   70   71 1   
    72   70   73 1   
    73   70   77 1   
    74   71   72 2   
    75   71   83 1   
    76   73   74 1   
    77   73   75 1   
    78   73   78 1   
    79   74   80 1   
    80   74   81 1   
    81   74   82 1   
    82   75   79 1   
    83   83   84 1   
    84   83   91 1   
    85   84   85 1   
    86   84   87 1   
    87   84   92 1   
    88   85   86 2   
    89   85  102 1   
    90   87   88 1   
    91   87   89 1   
    92   87   93 1   
    93   88   90 1   
    94   88   94 1   
    95   88   95 1   
    96   89   96 1   
    97   89   97 1   
    98   89   98 1   
    99   90   99 1   
   100   90  100 1   
   101   90  101 1   
   102  102  103 1   
   103  102  110 1   
   104  103  104 1   
   105  103  106 1   
   106  103  111 1   
   107  104  105 2   
   108  104  114 1   
   109  106  107 1   
   110  106  112 1   
   111  106  113 1   
   112  107  108 1   
   113  107  109 1   
   114  114  115 1   
   115  114  125 1   
   116  115  116 1   
   117  115  118 1   
   118  115  126 1   
   119  116  117 2   
   120  116  134 1   
   121  118  119 1   
   122  118  127 1   
   123  118  128 1   
   124  119  120 ar  
   125  119  121 ar  
   126  120  122 ar  
   127  120  129 1   
   128  121  123 ar  
   129  121  130 1   
   130  122  124 ar  
   131  122  131 1   
   132  123  124 ar  
   133  123  132 1   
   134  124  133 1   
   135  134  135 1   
   136  134  140 1   
   137  135  136 1   
   138  135  138 1   
   139  135  141 1   
   140  136  137 2   
   141  136  148 1   
   142  138  139 1   
   143  138  142 1   
   144  138  143 1   
   145  139  140 1   
   146  139  144 1   
   147  139  145 1   
   148  140  146 1   
   149  140  147 1   
   150  148  149 1   
   151  148  157 1   
   152  149  150 1   
   153  149  152 1   
   154  149  158 1   
   155  150  151 2   
   156  150  163 1   
   157  152  153 1   
   158  152  159 1   
   159  152  160 1   
   160  153  154 1   
   161  153  161 1   
   162  153  162 1   
   163  154  155 1   
   164  154  156 1   
   165  163  164 1   
   166  163  168 1   
   167  164  165 1   
   168  164  166 1   
   169  164  167 1   
   170  170  171 1   
   171  170  172 1   
   172  173  174 1   
   173  173  175 1   
   174  176  177 1   
   175  176  178 1   
@<TRIPOS>SUBSTRUCTURE
     1 MOL         1 TEMP              0 ****  ****    0 ROOT
