@<TRIPOS>MOLECULE
MOL
  195   189     1     0     0
SMALL
resp


@<TRIPOS>ATOM
      1 C1         -1.8540   -5.1490   -2.1210 c3        1 MOL      0.005767
      2 C2         -2.8440   -4.9200   -1.0190 c         1 MOL      0.661805
      3 O1         -3.2550   -3.7450   -0.8880 o         1 MOL     -0.535201
      4 H1         -2.3840   -5.4020   -3.0390 hc        1 MOL     -0.055903
      5 H2         -1.2680   -4.2430   -2.2790 hc        1 MOL     -0.055903
      6 H3         -1.1890   -5.9690   -1.8490 hc        1 MOL     -0.055903
      7 N1         -3.3670   -6.0090   -0.4460 n         1 MOL     -0.701934
      8 C3         -4.4250   -6.0550    0.5900 c3        1 MOL      0.020951
      9 C4         -5.8740   -5.4710    0.1890 c         1 MOL      0.493056
     10 O2         -6.9100   -5.9620    0.6630 o         1 MOL     -0.547632
     11 C5         -3.9650   -5.3000    1.8410 c3        1 MOL     -0.451257
     12 C6         -2.5150   -5.5930    2.2400 c         1 MOL      0.699355
     13 O3         -2.1380   -6.7800    2.3830 o         1 MOL     -0.675656
     14 O4         -1.6970   -4.6690    2.4960 o         1 MOL     -0.675656
     15 H4         -2.8700   -6.8360   -0.7440 hn        1 MOL      0.415096
     16 H5         -4.4760   -7.0780    0.9620 h1        1 MOL      0.085974
     17 H6         -4.6070   -5.3930    2.7250 hc        1 MOL      0.166952
     18 H7         -4.1000   -4.2490    1.5780 hc        1 MOL      0.166952
     19 N2         -5.9060   -4.5620   -0.7780 n         1 MOL     -0.276438
     20 C7         -7.1660   -4.0160   -1.4100 c3        1 MOL      0.203814
     21 C8         -8.1590   -3.3730   -0.4230 c         1 MOL      0.511755
     22 O5         -9.1850   -3.8160   -0.1450 o         1 MOL     -0.561219
     23 C9         -7.8570   -4.9790   -2.4190 c3        1 MOL      0.193379
     24 C10        -6.8040   -5.7190   -3.2580 c3        1 MOL     -0.028372
     25 C11        -8.8380   -4.1790   -3.3250 c3        1 MOL     -0.443773
     26 C12        -7.2130   -6.7280   -4.3230 c3        1 MOL     -0.289475
     27 H8         -5.0260   -4.1500   -1.0360 hn        1 MOL      0.143791
     28 H9         -6.8310   -3.1910   -2.0390 h1        1 MOL      0.022649
     29 H10        -8.3430   -5.7420   -1.8180 hc        1 MOL     -0.029584
     30 H11        -6.0560   -6.1510   -2.6030 hc        1 MOL      0.055913
     31 H12        -6.3150   -4.9060   -3.8090 hc        1 MOL      0.055913
     32 H13        -9.6600   -4.8350   -3.5910 hc        1 MOL      0.107856
     33 H14        -9.2820   -3.3090   -2.8380 hc        1 MOL      0.107856
     34 H15        -8.3760   -3.7280   -4.2000 hc        1 MOL      0.107856
     35 H16        -6.3500   -7.0760   -4.8820 hc        1 MOL      0.054589
     36 H17        -7.5630   -7.6950   -3.9660 hc        1 MOL      0.054589
     37 H18        -7.9420   -6.3840   -5.0650 hc        1 MOL      0.054589
     38 N3         -7.7660   -2.3550    0.3380 n         1 MOL     -0.292606
     39 C13        -6.5730   -1.4940    0.2790 c3        1 MOL     -0.300976
     40 C14        -6.1260   -1.2660    1.7520 c         1 MOL      0.490974
     41 O6         -6.9020   -0.9590    2.6550 o         1 MOL     -0.484887
     42 C15        -6.7920   -0.1870   -0.4640 c3        1 MOL     -0.044478
     43 C16        -7.5470   -0.3660   -1.7630 c         1 MOL      0.676910
     44 O7         -8.7470    0.0150   -1.8810 o         1 MOL     -0.675852
     45 O8         -6.8950   -0.8180   -2.7510 o         1 MOL     -0.675852
     46 H19        -8.4120   -2.0790    1.0660 hn        1 MOL      0.280211
     47 H20        -5.7390   -1.9090   -0.2990 h1        1 MOL      0.128496
     48 H21        -5.8560    0.2670   -0.7910 hc        1 MOL      0.031804
     49 H22        -7.3760    0.5280    0.1310 hc        1 MOL      0.031804
     50 N4         -4.7850   -1.3580    2.0430 n         1 MOL     -0.230100
     51 C17        -4.2020   -1.0650    3.3650 c3        1 MOL     -0.504252
     52 C18        -4.5420    0.2970    3.9180 c         1 MOL      0.648039
     53 O9         -4.9650    0.3240    5.1000 o         1 MOL     -0.565299
     54 H23        -4.1540   -1.4200    1.2610 hn        1 MOL      0.254294
     55 H24        -3.1210   -0.9810    3.3050 h1        1 MOL      0.207854
     56 H25        -4.5210   -1.8030    4.1030 h1        1 MOL      0.207854
     57 N5         -4.1610    1.3400    3.1690 n         1 MOL     -0.412608
     58 C19        -4.5090    2.7670    3.5280 c3        1 MOL      0.018639
     59 C20        -5.0640    3.6650    2.3110 c         1 MOL      0.481841
     60 O10        -5.6460    4.6860    2.5670 o         1 MOL     -0.535040
     61 C21        -3.2580    3.5090    4.1150 c3        1 MOL     -0.169366
     62 C22        -2.0700    3.3190    3.1970 c         1 MOL      0.676956
     63 O11        -2.1380    3.7880    2.0360 o         1 MOL     -0.678188
     64 O12        -1.1130    2.5790    3.5650 o         1 MOL     -0.678188
     65 H26        -3.6610    1.1660    2.3160 hn        1 MOL      0.288219
     66 H27        -5.2480    2.7070    4.3220 h1        1 MOL      0.092708
     67 H28        -3.0440    3.0440    5.0690 hc        1 MOL      0.028606
     68 H29        -3.5500    4.5460    4.2880 hc        1 MOL      0.028606
     69 N6         -5.1520    3.0810    1.0860 n         1 MOL     -0.289387
     70 C23        -5.5610    3.7590   -0.1550 c3        1 MOL     -0.066157
     71 C24        -4.6220    4.8610   -0.7090 c         1 MOL      0.390801
     72 O13        -4.8630    5.3430   -1.8180 o         1 MOL     -0.564012
     73 H30        -5.0620    2.0720    1.0620 hn        1 MOL      0.165922
     74 H31        -6.5580    4.1650    0.0520 h1        1 MOL      0.086740
     75 H32        -5.7680    2.9900   -0.9000 h1        1 MOL      0.086740
     76 N7         -3.6810    5.3280    0.0940 n         1 MOL      0.002485
     77 C25        -2.8650    6.5650   -0.2270 c3        1 MOL     -0.025762
     78 C26        -2.0090    6.4200   -1.4940 c         1 MOL      0.374150
     79 O14        -1.4750    7.4170   -1.9160 o         1 MOL     -0.495474
     80 C27        -3.8030    7.8260   -0.2430 c3        1 MOL     -0.008761
     81 C28        -4.4840    8.2700    1.1050 c3        1 MOL     -0.230584
     82 C29        -3.5200    8.7690    2.2420 c         1 MOL      0.715953
     83 N8         -3.9990    8.9940    3.4400 n         1 MOL     -0.844620
     84 O15        -2.3910    9.1630    2.0270 o         1 MOL     -0.556030
     85 H33        -3.3610    4.7910    0.8840 hn        1 MOL      0.099901
     86 H34        -2.2070    6.6630    0.6460 h1        1 MOL      0.098760
     87 H35        -4.5380    7.5360   -0.9880 hc        1 MOL      0.042414
     88 H36        -3.1970    8.6780   -0.5580 hc        1 MOL      0.042414
     89 H37        -4.9960    7.3970    1.5140 hc        1 MOL      0.050436
     90 H38        -5.2220    8.9910    0.7710 hc        1 MOL      0.050436
     91 H39        -4.9420    8.7120    3.6660 hn        1 MOL      0.364660
     92 H40        -3.3590    9.2470    4.1780 hn        1 MOL      0.364660
     93 N9         -1.7290    5.2110   -2.0070 n         1 MOL     -0.258778
     94 C30        -1.1190    5.1510   -3.3710 c3        1 MOL     -0.082119
     95 C31         0.1690    4.3020   -3.5860 c         1 MOL      0.441416
     96 O16         0.8410    4.4440   -4.6050 o         1 MOL     -0.561401
     97 C32        -2.2380    4.5220   -4.2630 c3        1 MOL      0.371870
     98 C33        -2.9340    3.2910   -3.6530 c3        1 MOL     -0.490680
     99 C34        -3.2070    5.5820   -4.6810 c3        1 MOL     -0.490680
    100 H41        -1.9760    4.4080   -1.4470 hn        1 MOL      0.225873
    101 H42        -0.9090    6.1790   -3.6660 h1        1 MOL      0.116526
    102 H43        -1.7070    4.2240   -5.1630 hc        1 MOL     -0.042950
    103 H44        -3.6400    3.4740   -2.8410 hc        1 MOL      0.122368
    104 H45        -3.5100    2.7430   -4.4060 hc        1 MOL      0.122368
    105 H46        -2.2170    2.6280   -3.1690 hc        1 MOL      0.122368
    106 H47        -2.9210    6.4190   -5.3000 hc        1 MOL      0.122368
    107 H48        -4.0050    5.0000   -5.1410 hc        1 MOL      0.122368
    108 H49        -3.6680    6.0570   -3.8190 hc        1 MOL      0.122368
    109 N10         0.4980    3.4870   -2.5970 n         1 MOL     -0.240266
    110 C35         1.6120    2.6210   -2.5520 c3        1 MOL      0.355475
    111 C36         2.4290    2.6270   -1.2390 c         1 MOL      0.258011
    112 O17         2.0440    3.2380   -0.2260 o         1 MOL     -0.424541
    113 C37         0.9790    1.2130   -2.7540 c3        1 MOL     -0.419431
    114 C38         0.3910    0.5310   -1.4770 c         1 MOL      0.660533
    115 N11         0.2010   -0.7250   -1.5320 n         1 MOL     -0.859771
    116 O18         0.0540    1.0980   -0.4350 o         1 MOL     -0.427100
    117 H50         0.0150    3.6410   -1.7290 hn        1 MOL      0.152712
    118 H51         2.2860    2.8300   -3.3920 h1        1 MOL      0.034181
    119 H52         1.8180    0.5800   -3.0650 hc        1 MOL      0.071835
    120 H53         0.2830    1.3060   -3.5810 hc        1 MOL      0.071835
    121 H54         0.5900   -1.1280   -2.3770 hn        1 MOL      0.410175
    122 H55        -0.0010   -1.2880   -0.7210 hn        1 MOL      0.410175
    123 N12         3.4850    1.7910   -1.2090 n         1 MOL     -0.441069
    124 C39         4.3930    1.5680   -0.0600 c3        1 MOL      0.423297
    125 C40         5.8390    1.2760   -0.5180 c         1 MOL      0.288367
    126 O19         6.1000    0.9340   -1.6530 o         1 MOL     -0.509673
    127 C41         3.7470    0.3810    0.6620 c3        1 MOL     -0.347178
    128 C42         4.4410    0.0030    1.9420 ca        1 MOL      0.223318
    129 C43         4.5210    0.9110    3.0340 ca        1 MOL     -0.235350
    130 C44         5.1380   -1.2200    2.0410 ca        1 MOL     -0.235350
    131 C45         5.3980    0.6350    4.1010 ca        1 MOL     -0.259603
    132 C46         5.8980   -1.5430    3.2400 ca        1 MOL     -0.259603
    133 C47         6.0630   -0.5410    4.1790 ca        1 MOL      0.336823
    134 O20         6.9590   -0.7920    5.0920 oh        1 MOL     -0.513047
    135 H56         3.7720    1.3510   -2.0740 hn        1 MOL      0.271998
    136 H57         4.2690    2.4840    0.5240 h1        1 MOL      0.004321
    137 H58         3.8060   -0.4570   -0.0280 hc        1 MOL      0.104931
    138 H59         2.6920    0.5650    0.8890 hc        1 MOL      0.104931
    139 H60         3.9380    1.8130    2.9710 ha        1 MOL      0.183511
    140 H61         5.1730   -1.8760    1.1800 ha        1 MOL      0.183511
    141 H62         5.5560    1.3300    4.9000 ha        1 MOL      0.146447
    142 H63         6.4460   -2.4740    3.2800 ha        1 MOL      0.146447
    143 H64         6.8680   -0.1800    5.8280 ho        1 MOL      0.391309
    144 N13         6.8330    1.4230    0.3700 n         1 MOL     -0.409923
    145 C48         8.2850    1.0630    0.1220 c3        1 MOL      0.341229
    146 C49         8.7760    0.1250    1.2510 c         1 MOL      0.291568
    147 O21         9.1710    0.5320    2.3280 o         1 MOL     -0.532116
    148 C50         9.1750    2.2370   -0.0160 c3        1 MOL      0.085352
    149 C51         8.8420    3.1710   -1.1670 c3        1 MOL     -0.240582
    150 C52         9.8480    4.2700   -1.1700 c         1 MOL      0.708151
    151 O22        10.7750    4.1880   -2.0070 o         1 MOL     -0.674157
    152 O23         9.7960    5.2220   -0.3670 o         1 MOL     -0.674157
    153 H65         6.6360    1.8160    1.2730 hn        1 MOL      0.257299
    154 H66         8.3700    0.4920   -0.8010 h1        1 MOL      0.071291
    155 H67        10.1910    1.8690   -0.1280 hc        1 MOL     -0.010146
    156 H68         9.1060    2.7870    0.9210 hc        1 MOL     -0.010146
    157 H69         7.8480    3.5820   -0.9760 hc        1 MOL      0.035287
    158 H70         8.8760    2.5380   -2.0570 hc        1 MOL      0.035287
    159 N14         8.8070   -1.1750    1.0450 n         1 MOL     -0.120277
    160 C53         8.3960   -1.9610   -0.1620 c3        1 MOL     -0.890849
    161 C54         9.4030   -1.7780   -1.3410 c         1 MOL      0.827478
    162 O24        10.5770   -1.5000   -1.1450 o         1 MOL     -0.553701
    163 C55         8.4090   -3.4120    0.3400 c3        1 MOL      0.407667
    164 C56         7.8710   -4.4950   -0.6200 c3        1 MOL     -0.494286
    165 C57         6.4890   -4.0480   -1.1280 c         1 MOL      0.788188
    166 O25         5.5140   -4.7250   -0.7190 o         1 MOL     -0.802409
    167 O26         6.3600   -3.0950   -1.9600 o         1 MOL     -0.802409
    168 H71         9.1940   -1.5990    1.8760 hn        1 MOL      0.243633
    169 H72         7.3690   -1.6620   -0.3690 h1        1 MOL      0.334725
    170 H73         7.8360   -3.4530    1.2620 hc        1 MOL     -0.018967
    171 H74         9.3860   -3.6790    0.7360 hc        1 MOL     -0.018967
    172 H75         7.7530   -5.4300   -0.0640 hc        1 MOL      0.098223
    173 H76         8.5680   -4.6580   -1.4340 hc        1 MOL      0.098223
    174 N15         8.8780   -1.8940   -2.5830 n         1 MOL     -0.663059
    175 C58         9.3280   -1.4460   -3.9340 c3        1 MOL     -0.067767
    176 H77         8.7560   -1.9710   -4.6990 h1        1 MOL      0.072733
    177 H78         9.1670   -0.3730   -4.0330 h1        1 MOL      0.072733
    178 H79        10.3880   -1.6690   -4.0570 h1        1 MOL      0.072733
    179 H80         8.0010   -2.3970   -2.5630 hn        1 MOL      0.558609
    180 Ca1         2.9940   -5.0870   -0.0830 Ca        1 MOL      1.581027
    181 O27         3.0670   -3.3000   -2.0100 oh        1 MOL     -0.828554
    182 H81         2.4430   -3.0230   -2.6750 ho        1 MOL      0.393144
    183 H82         3.7320   -2.6090   -1.9960 ho        1 MOL      0.393144
    184 O28         2.9700   -7.9130    0.4130 oh        1 MOL     -0.828554
    185 H83         2.6780   -8.6620    0.9350 ho        1 MOL      0.393144
    186 H84         3.5890   -8.2880   -0.2170 ho        1 MOL      0.393144
    187 O29         3.6910   -5.0530    2.4840 oh        1 MOL     -0.828554
    188 H85         4.5050   -5.2600    2.9450 ho        1 MOL      0.393144
    189 H86         3.4500   -4.1830    2.7990 ho        1 MOL      0.393144
    190 O30         0.6630   -5.4170    1.8540 oh        1 MOL     -0.828554
    191 H87         0.6310   -6.3630    1.9780 ho        1 MOL      0.393144
    192 H88        -0.2280   -5.1250    2.0480 ho        1 MOL      0.393144
    193 O31         1.9210   -2.8640    1.0460 oh        1 MOL     -0.828554
    194 H89         2.2090   -2.5160    1.8880 ho        1 MOL      0.393144
    195 H90         0.9720   -2.8200    1.0740 ho        1 MOL      0.393144
@<TRIPOS>BOND
     1    1    2 1   
     2    1    4 1   
     3    1    5 1   
     4    1    6 1   
     5    2    3 2   
     6    2    7 1   
     7    7    8 1   
     8    7   15 1   
     9    8    9 1   
    10    8   11 1   
    11    8   16 1   
    12    9   10 2   
    13    9   19 1   
    14   11   12 1   
    15   11   17 1   
    16   11   18 1   
    17   12   13 1   
    18   12   14 1   
    19   19   20 1   
    20   19   27 1   
    21   20   21 1   
    22   20   23 1   
    23   20   28 1   
    24   21   22 2   
    25   21   38 1   
    26   23   24 1   
    27   23   25 1   
    28   23   29 1   
    29   24   26 1   
    30   24   30 1   
    31   24   31 1   
    32   25   32 1   
    33   25   33 1   
    34   25   34 1   
    35   26   35 1   
    36   26   36 1   
    37   26   37 1   
    38   38   39 1   
    39   38   46 1   
    40   39   40 1   
    41   39   42 1   
    42   39   47 1   
    43   40   41 2   
    44   40   50 1   
    45   42   43 1   
    46   42   48 1   
    47   42   49 1   
    48   43   44 1   
    49   43   45 1   
    50   50   51 1   
    51   50   54 1   
    52   51   52 1   
    53   51   55 1   
    54   51   56 1   
    55   52   53 2   
    56   52   57 1   
    57   57   58 1   
    58   57   65 1   
    59   58   59 1   
    60   58   61 1   
    61   58   66 1   
    62   59   60 2   
    63   59   69 1   
    64   61   62 1   
    65   61   67 1   
    66   61   68 1   
    67   62   63 1   
    68   62   64 1   
    69   69   70 1   
    70   69   73 1   
    71   70   71 1   
    72   70   74 1   
    73   70   75 1   
    74   71   72 2   
    75   71   76 1   
    76   76   77 1   
    77   76   85 1   
    78   77   78 1   
    79   77   80 1   
    80   77   86 1   
    81   78   79 2   
    82   78   93 1   
    83   80   81 1   
    84   80   87 1   
    85   80   88 1   
    86   81   82 1   
    87   81   89 1   
    88   81   90 1   
    89   82   83 1   
    90   82   84 2   
    91   83   91 1   
    92   83   92 1   
    93   93   94 1   
    94   93  100 1   
    95   94   95 1   
    96   94   97 1   
    97   94  101 1   
    98   95   96 2   
    99   95  109 1   
   100   97   98 1   
   101   97   99 1   
   102   97  102 1   
   103   98  103 1   
   104   98  104 1   
   105   98  105 1   
   106   99  106 1   
   107   99  107 1   
   108   99  108 1   
   109  109  110 1   
   110  109  117 1   
   111  110  111 1   
   112  110  113 1   
   113  110  118 1   
   114  111  112 2   
   115  111  123 1   
   116  113  114 1   
   117  113  119 1   
   118  113  120 1   
   119  114  115 1   
   120  114  116 2   
   121  115  121 1   
   122  115  122 1   
   123  123  124 1   
   124  123  135 1   
   125  124  125 1   
   126  124  127 1   
   127  124  136 1   
   128  125  126 2   
   129  125  144 1   
   130  127  128 1   
   131  127  137 1   
   132  127  138 1   
   133  128  129 ar  
   134  128  130 ar  
   135  129  131 ar  
   136  129  139 1   
   137  130  132 ar  
   138  130  140 1   
   139  131  133 ar  
   140  131  141 1   
   141  132  133 ar  
   142  132  142 1   
   143  133  134 1   
   144  134  143 1   
   145  144  145 1   
   146  144  153 1   
   147  145  146 1   
   148  145  148 1   
   149  145  154 1   
   150  146  147 2   
   151  146  159 1   
   152  148  149 1   
   153  148  155 1   
   154  148  156 1   
   155  149  150 1   
   156  149  157 1   
   157  149  158 1   
   158  150  151 1   
   159  150  152 1   
   160  159  160 1   
   161  159  168 1   
   162  160  161 1   
   163  160  163 1   
   164  160  169 1   
   165  161  162 2   
   166  161  174 1   
   167  163  164 1   
   168  163  170 1   
   169  163  171 1   
   170  164  165 1   
   171  164  172 1   
   172  164  173 1   
   173  165  166 1   
   174  165  167 1   
   175  174  175 1   
   176  174  179 1   
   177  175  176 1   
   178  175  177 1   
   179  175  178 1   
   180  181  182 1   
   181  181  183 1   
   182  184  185 1   
   183  184  186 1   
   184  187  188 1   
   185  187  189 1   
   186  190  191 1   
   187  190  192 1   
   188  193  194 1   
   189  193  195 1   
@<TRIPOS>SUBSTRUCTURE
     1 MOL         1 TEMP              0 ****  ****    0 ROOT
