@<TRIPOS>MOLECULE
MOL
  175   173     1     0     0
SMALL
resp


@<TRIPOS>ATOM
      1 C1         10.3920    6.9490   -1.1720 c3        1 MOL     -0.324428
      2 C2          9.2340    6.0340   -0.7640 c         1 MOL      0.731702
      3 O1          8.1860    6.4870   -0.3760 o         1 MOL     -0.623132
      4 H1         10.3290    7.1610   -2.2390 hc        1 MOL      0.081569
      5 H2         10.3330    7.8830   -0.6120 hc        1 MOL      0.081569
      6 H3         11.3400    6.4550   -0.9560 hc        1 MOL      0.081569
      7 N1          9.3510    4.7640   -0.7950 n         1 MOL     -0.678892
      8 C3         10.5360    4.0130   -1.2370 c3        1 MOL      0.186173
      9 C4         11.3250    3.3430   -0.0480 c         1 MOL      0.585116
     10 O2         12.5160    3.4200    0.0560 o         1 MOL     -0.569531
     11 C5         10.1670    3.0960   -2.4170 c3        1 MOL     -0.143006
     12 C6          8.9310    2.2210   -2.2510 c         1 MOL      0.741806
     13 O3          8.6840    1.3950   -3.1140 o         1 MOL     -0.806977
     14 O4          8.1300    2.2740   -1.3070 o         1 MOL     -0.806977
     15 H4          8.5540    4.1590   -0.6110 hn        1 MOL      0.438586
     16 H5         11.3140    4.6430   -1.6640 h1        1 MOL     -0.003442
     17 H6         11.0420    2.4600   -2.5760 hc        1 MOL      0.054980
     18 H7         10.0380    3.7300   -3.2980 hc        1 MOL      0.054980
     19 N2         10.5080    2.7430    0.8150 n         1 MOL     -0.666622
     20 C7         10.9530    1.9050    2.0010 c3        1 MOL      0.476320
     21 C8         10.5650    0.4080    1.8960 c         1 MOL      0.253594
     22 O5         11.1640   -0.4250    2.5920 o         1 MOL     -0.540670
     23 C9         10.3650    2.5720    3.2590 c3        1 MOL     -0.215177
     24 H8          9.5350    2.8620    0.5670 hn        1 MOL      0.325754
     25 H9         12.0240    1.9530    2.1750 h1        1 MOL      0.001986
     26 H10        10.7750    2.0530    4.1250 hc        1 MOL      0.055823
     27 H11        10.6250    3.6260    3.3530 hc        1 MOL      0.055823
     28 H12         9.2940    2.4370    3.1400 hc        1 MOL      0.055823
     29 N3          9.6570   -0.0210    1.0790 n         1 MOL     -0.215048
     30 C10         8.9810   -1.3100    1.1790 c3        1 MOL      0.132626
     31 C11         8.5130   -1.8200   -0.2440 c         1 MOL      0.248474
     32 O6          8.5700   -0.9900   -1.1790 o         1 MOL     -0.432977
     33 C12         7.7490   -1.1360    2.1190 c3        1 MOL     -0.243025
     34 C13         6.8000   -0.0150    1.7360 c         1 MOL      0.635937
     35 O7          6.4190    0.8300    2.5770 o         1 MOL     -0.637182
     36 O8          6.4220    0.0850    0.5270 o         1 MOL     -0.637182
     37 H13         9.1660    0.6210    0.4770 hn        1 MOL      0.215329
     38 H14         9.6670   -2.0260    1.6490 h1        1 MOL      0.055175
     39 H15         8.0710   -1.0050    3.1460 hc        1 MOL      0.060909
     40 H16         7.1750   -2.0590    2.2180 hc        1 MOL      0.060909
     41 N4          8.2200   -3.1280   -0.4250 n         1 MOL     -0.104193
     42 C14         7.8640   -3.7120   -1.6500 c3        1 MOL     -0.451183
     43 C15         6.4620   -3.2600   -2.1460 c         1 MOL      0.779885
     44 O9          6.2540   -2.0610   -2.2060 o         1 MOL     -0.733690
     45 H17         8.4820   -3.8330    0.2500 hn        1 MOL      0.237215
     46 H18         7.9700   -4.7970   -1.5550 h1        1 MOL      0.165098
     47 H19         8.5710   -3.3910   -2.4100 h1        1 MOL      0.165098
     48 N5          5.5500   -4.1890   -2.4180 n         1 MOL     -0.623976
     49 C16         4.1060   -4.0430   -2.6900 c3        1 MOL      0.519837
     50 C17         3.2360   -4.0830   -1.3800 c         1 MOL      0.413707
     51 O10         3.7050   -4.5920   -0.3410 o         1 MOL     -0.550255
     52 C18         3.7710   -5.0820   -3.7380 c3        1 MOL     -0.452596
     53 C19         2.3110   -5.1900   -4.2970 c         1 MOL      0.603430
     54 N6          2.0030   -6.2650   -5.0260 n         1 MOL     -0.763280
     55 O11         1.4560   -4.2710   -4.1540 o         1 MOL     -0.497625
     56 H20         5.7590   -5.1490   -2.1620 hn        1 MOL      0.281386
     57 H21         3.9620   -3.0760   -3.1820 h1        1 MOL     -0.017254
     58 H22         4.2400   -6.0330   -3.4840 hc        1 MOL      0.117369
     59 H23         4.4020   -4.8600   -4.6060 hc        1 MOL      0.117369
     60 H24         2.6890   -6.9450   -5.3080 hn        1 MOL      0.376681
     61 H25         1.0540   -6.2220   -5.3840 hn        1 MOL      0.376681
     62 N7          1.9900   -3.6230   -1.3770 n         1 MOL     -0.377401
     63 C20         1.0560   -3.6110   -0.2410 c3        1 MOL      0.066600
     64 C21         1.5480   -2.4750    0.6660 c         1 MOL      0.662648
     65 O12         1.9960   -1.4370    0.2220 o         1 MOL     -0.597072
     66 H26         1.7050   -3.3660   -2.3140 hn        1 MOL      0.244053
     67 H27         1.0490   -4.5750    0.2890 h1        1 MOL      0.091037
     68 H28         0.0230   -3.3400   -0.4550 h1        1 MOL      0.091037
     69 N8          1.3090   -2.5050    2.0060 n         1 MOL     -0.584164
     70 C22         0.4670   -3.4540    2.7840 c3        1 MOL     -0.041674
     71 C23        -1.0380   -3.0950    2.7810 c         1 MOL      0.375836
     72 O13        -1.7850   -4.0360    2.5790 o         1 MOL     -0.564257
     73 C24         0.9310   -3.4880    4.2630 c3        1 MOL      0.393950
     74 C25         2.1980   -4.2340    4.5390 c3        1 MOL     -0.596096
     75 O14         1.0620   -2.1560    4.6740 oh        1 MOL     -0.612821
     76 H29         1.6370   -1.6980    2.5320 hn        1 MOL      0.371618
     77 H30         0.5340   -4.4500    2.3340 h1        1 MOL      0.109429
     78 H31         0.1490   -3.9740    4.8460 h1        1 MOL      0.000131
     79 H32         1.0600   -2.2360    5.6260 ho        1 MOL      0.398185
     80 H33         2.4320   -4.0930    5.5960 hc        1 MOL      0.152223
     81 H34         2.0300   -5.2600    4.1990 hc        1 MOL      0.152223
     82 H35         2.9970   -3.7630    3.9660 hc        1 MOL      0.152223
     83 N9         -1.4280   -1.8880    3.0160 n         1 MOL     -0.124915
     84 C26        -2.7760   -1.3490    2.8390 c3        1 MOL      0.165445
     85 C27        -2.9220   -0.6810    1.4910 c         1 MOL      0.402211
     86 O15        -1.9550   -0.3170    0.8370 o         1 MOL     -0.518229
     87 C28        -3.0920   -0.2850    3.8450 c3        1 MOL      0.126062
     88 C29        -1.9960    0.7630    3.9670 c3        1 MOL     -0.061439
     89 C30        -3.3310   -1.0670    5.1230 c3        1 MOL     -0.224153
     90 C31        -2.1970    2.0020    3.0220 c3        1 MOL      0.141667
     91 H36        -0.7510   -1.2000    3.3310 hn        1 MOL      0.144075
     92 H37        -3.4910   -2.1630    2.9220 h1        1 MOL      0.052924
     93 H38        -4.0710    0.1360    3.6010 hc        1 MOL      0.021396
     94 H39        -1.0140    0.3830    3.6750 hc        1 MOL      0.005158
     95 H40        -1.8660    1.1680    4.9640 hc        1 MOL      0.005158
     96 H41        -2.4580   -1.6300    5.4280 hc        1 MOL      0.028812
     97 H42        -3.7160   -0.4420    5.9320 hc        1 MOL      0.028812
     98 H43        -4.1070   -1.8240    5.0560 hc        1 MOL      0.028812
     99 H44        -1.5760    1.8360    2.1320 hc        1 MOL     -0.034665
    100 H45        -3.2490    2.0880    2.7720 hc        1 MOL     -0.034665
    101 H46        -1.7570    2.9100    3.4100 hc        1 MOL     -0.034665
    102 N10        -4.1070   -0.6980    0.8180 n         1 MOL     -0.355040
    103 C32        -5.3360   -1.4880    1.0910 c3        1 MOL      0.105454
    104 C33        -6.4610   -0.6900    0.3460 c         1 MOL      0.418131
    105 O16        -6.2120   -0.0710   -0.6790 o         1 MOL     -0.446927
    106 C34        -5.3520   -2.8270    0.5530 c3        1 MOL     -0.053920
    107 C35        -4.7790   -3.1290   -0.8180 c         1 MOL      0.715435
    108 O17        -3.5560   -3.0860   -1.0990 o         1 MOL     -0.706523
    109 O18        -5.5160   -3.5600   -1.7200 o         1 MOL     -0.706523
    110 H47        -4.0680   -0.2140   -0.0620 hn        1 MOL      0.272021
    111 H48        -5.6400   -1.4610    2.1280 h1        1 MOL      0.018029
    112 H49        -6.3530   -3.2600    0.5500 hc        1 MOL     -0.028671
    113 H50        -4.7520   -3.3220    1.3090 hc        1 MOL     -0.028671
    114 N11        -7.7000   -0.7460    0.8710 n         1 MOL     -0.562452
    115 C36        -9.0010   -0.4840    0.1620 c3        1 MOL      0.534879
    116 C37        -9.8280    0.5270    0.9140 c         1 MOL      0.214835
    117 O19       -10.0370    0.3220    2.1220 o         1 MOL     -0.527587
    118 C38        -9.7470   -1.7750   -0.0560 c3        1 MOL     -0.178735
    119 C39       -11.0540   -1.5490   -0.8210 ca        1 MOL      0.069941
    120 C40       -12.2360   -1.2490   -0.1310 ca        1 MOL     -0.158665
    121 C41       -11.0400   -1.4790   -2.2350 ca        1 MOL     -0.158665
    122 C42       -13.4090   -1.0390   -0.8820 ca        1 MOL     -0.162828
    123 C43       -12.1570   -1.1320   -2.9730 ca        1 MOL     -0.162828
    124 C44       -13.3950   -1.0140   -2.3220 ca        1 MOL     -0.065083
    125 H51        -7.8280   -1.3040    1.7060 hn        1 MOL      0.297097
    126 H52        -8.7230   -0.1090   -0.8150 h1        1 MOL     -0.025254
    127 H53       -10.0060   -2.2860    0.8790 hc        1 MOL      0.052738
    128 H54        -9.2060   -2.4560   -0.7090 hc        1 MOL      0.052738
    129 H55       -12.1840   -1.2850    0.9470 ha        1 MOL      0.140652
    130 H56       -10.1700   -1.7740   -2.8070 ha        1 MOL      0.140652
    131 H57       -14.3070   -0.8190   -0.3300 ha        1 MOL      0.117965
    132 H58       -12.2070   -1.2530   -4.0440 ha        1 MOL      0.117965
    133 H59       -14.3450   -0.8910   -2.8200 ha        1 MOL      0.082176
    134 N12       -10.3360    1.6270    0.3120 n         1 MOL      0.066760
    135 C45       -10.2490    1.9170   -1.1330 c3        1 MOL     -0.052231
    136 C46        -8.9360    2.4450   -1.6560 c         1 MOL      0.468853
    137 O20        -8.5320    2.1410   -2.8130 o         1 MOL     -0.582843
    138 C47       -11.3210    3.0000   -1.4110 c3        1 MOL      0.031061
    139 C48       -12.3360    2.7990   -0.3440 c3        1 MOL     -0.129938
    140 C49       -11.5610    2.2570    0.8330 c3        1 MOL      0.217041
    141 H60       -10.4420    1.0050   -1.6960 h1        1 MOL      0.064773
    142 H61       -10.8660    3.9920   -1.3020 hc        1 MOL      0.024004
    143 H62       -11.7950    3.0240   -2.3870 hc        1 MOL      0.024004
    144 H63       -12.7430    3.7280    0.0380 hc        1 MOL      0.015540
    145 H64       -13.1650    2.1230   -0.5820 hc        1 MOL      0.015540
    146 H65       -11.3120    2.9530    1.6420 h1        1 MOL     -0.028580
    147 H66       -12.2170    1.5120    1.2620 h1        1 MOL     -0.028580
    148 N13        -8.1370    3.1130   -0.8440 n         1 MOL     -0.391231
    149 C50        -6.7810    3.6280   -1.1440 c3        1 MOL      0.300434
    150 C51        -6.8060    4.7970   -2.1510 c         1 MOL      0.383419
    151 O21        -7.1220    5.9730   -1.8240 o         1 MOL     -0.571682
    152 C52        -6.1520    4.0500    0.2080 c3        1 MOL      0.021192
    153 C53        -6.2680    3.0140    1.3480 c3        1 MOL     -0.090744
    154 C54        -5.6550    3.4150    2.6680 c         1 MOL      0.785206
    155 O22        -5.9080    2.8270    3.7300 o         1 MOL     -0.753090
    156 O23        -4.9360    4.4030    2.7810 o         1 MOL     -0.753090
    157 H67        -8.4280    3.0530    0.1230 hn        1 MOL      0.165398
    158 H68        -6.1930    2.8220   -1.5780 h1        1 MOL      0.017594
    159 H69        -6.6490    4.9680    0.5070 hc        1 MOL     -0.007313
    160 H70        -5.1200    4.3490    0.0440 hc        1 MOL     -0.007313
    161 H71        -5.8660    2.0390    1.0970 hc        1 MOL     -0.035566
    162 H72        -7.3190    2.8740    1.6210 hc        1 MOL     -0.035566
    163 N14        -6.4350    4.5430   -3.4050 n         1 MOL     -0.335269
    164 C55        -5.9450    3.2930   -4.0910 c3        1 MOL     -0.146540
    165 H73        -4.8660    3.3550   -4.2300 h1        1 MOL      0.089536
    166 H74        -6.1840    2.4240   -3.4780 h1        1 MOL      0.089536
    167 H75        -6.4310    3.1980   -5.0620 h1        1 MOL      0.089536
    168 H76        -6.7540    5.2860   -4.0130 hn        1 MOL      0.257582
    169 Ca1         6.3840    0.5670   -2.0490 Ca        1 MOL      1.795933
    170 O24         5.0320    2.7540   -1.2090 oh        1 MOL     -0.959042
    171 H77         4.2970    2.8870   -1.8130 ho        1 MOL      0.457227
    172 H78         4.8330    3.3270   -0.4620 ho        1 MOL      0.457227
    173 O25         4.0740   -0.1250   -0.9460 oh        1 MOL     -0.959042
    174 H79         3.4900   -0.8810   -0.8470 ho        1 MOL      0.457227
    175 H80         4.0280    0.3250   -0.0980 ho        1 MOL      0.457227
@<TRIPOS>BOND
     1    1    2 1   
     2    1    4 1   
     3    1    5 1   
     4    1    6 1   
     5    2    3 2   
     6    2    7 1   
     7    7    8 1   
     8    7   15 1   
     9    8    9 1   
    10    8   11 1   
    11    8   16 1   
    12    9   10 2   
    13    9   19 1   
    14   11   12 1   
    15   11   17 1   
    16   11   18 1   
    17   12   13 1   
    18   12   14 1   
    19   19   20 1   
    20   19   24 1   
    21   20   21 1   
    22   20   23 1   
    23   20   25 1   
    24   21   22 2   
    25   21   29 1   
    26   23   26 1   
    27   23   27 1   
    28   23   28 1   
    29   29   30 1   
    30   29   37 1   
    31   30   31 1   
    32   30   33 1   
    33   30   38 1   
    34   31   32 2   
    35   31   41 1   
    36   33   34 1   
    37   33   39 1   
    38   33   40 1   
    39   34   35 1   
    40   34   36 1   
    41   41   42 1   
    42   41   45 1   
    43   42   43 1   
    44   42   46 1   
    45   42   47 1   
    46   43   44 2   
    47   43   48 1   
    48   48   49 1   
    49   48   56 1   
    50   49   50 1   
    51   49   52 1   
    52   49   57 1   
    53   50   51 2   
    54   50   62 1   
    55   52   53 1   
    56   52   58 1   
    57   52   59 1   
    58   53   54 1   
    59   53   55 2   
    60   54   60 1   
    61   54   61 1   
    62   62   63 1   
    63   62   66 1   
    64   63   64 1   
    65   63   67 1   
    66   63   68 1   
    67   64   65 2   
    68   64   69 1   
    69   69   70 1   
    70   69   76 1   
    71   70   71 1   
    72   70   73 1   
    73   70   77 1   
    74   71   72 2   
    75   71   83 1   
    76   73   74 1   
    77   73   75 1   
    78   73   78 1   
    79   74   80 1   
    80   74   81 1   
    81   74   82 1   
    82   75   79 1   
    83   83   84 1   
    84   83   91 1   
    85   84   85 1   
    86   84   87 1   
    87   84   92 1   
    88   85   86 2   
    89   85  102 1   
    90   87   88 1   
    91   87   89 1   
    92   87   93 1   
    93   88   90 1   
    94   88   94 1   
    95   88   95 1   
    96   89   96 1   
    97   89   97 1   
    98   89   98 1   
    99   90   99 1   
   100   90  100 1   
   101   90  101 1   
   102  102  103 1   
   103  102  110 1   
   104  103  104 1   
   105  103  106 1   
   106  103  111 1   
   107  104  105 2   
   108  104  114 1   
   109  106  107 1   
   110  106  112 1   
   111  106  113 1   
   112  107  108 1   
   113  107  109 1   
   114  114  115 1   
   115  114  125 1   
   116  115  116 1   
   117  115  118 1   
   118  115  126 1   
   119  116  117 2   
   120  116  134 1   
   121  118  119 1   
   122  118  127 1   
   123  118  128 1   
   124  119  120 ar  
   125  119  121 ar  
   126  120  122 ar  
   127  120  129 1   
   128  121  123 ar  
   129  121  130 1   
   130  122  124 ar  
   131  122  131 1   
   132  123  124 ar  
   133  123  132 1   
   134  124  133 1   
   135  134  135 1   
   136  134  140 1   
   137  135  136 1   
   138  135  138 1   
   139  135  141 1   
   140  136  137 2   
   141  136  148 1   
   142  138  139 1   
   143  138  142 1   
   144  138  143 1   
   145  139  140 1   
   146  139  144 1   
   147  139  145 1   
   148  140  146 1   
   149  140  147 1   
   150  148  149 1   
   151  148  157 1   
   152  149  150 1   
   153  149  152 1   
   154  149  158 1   
   155  150  151 2   
   156  150  163 1   
   157  152  153 1   
   158  152  159 1   
   159  152  160 1   
   160  153  154 1   
   161  153  161 1   
   162  153  162 1   
   163  154  155 1   
   164  154  156 1   
   165  163  164 1   
   166  163  168 1   
   167  164  165 1   
   168  164  166 1   
   169  164  167 1   
   170  170  171 1   
   171  170  172 1   
   172  173  174 1   
   173  173  175 1   
@<TRIPOS>SUBSTRUCTURE
     1 MOL         1 TEMP              0 ****  ****    0 ROOT
