@<TRIPOS>MOLECULE
MOL
  195   189     1     0     0
SMALL
resp


@<TRIPOS>ATOM
      1 C1         -9.9880   -6.7140    0.2510 c3        1 MOL     -0.380070
      2 C2         -8.9700   -5.5710    0.0050 c         1 MOL      0.635968
      3 O1         -8.1230   -5.6570   -0.9440 o         1 MOL     -0.598085
      4 H1         -9.5660   -7.6570   -0.0970 hc        1 MOL      0.102943
      5 H2        -10.2040   -6.7850    1.3170 hc        1 MOL      0.102943
      6 H3        -10.9080   -6.5060   -0.2940 hc        1 MOL      0.102943
      7 N1         -9.0390   -4.5270    0.8120 n         1 MOL     -0.438174
      8 C3         -8.0730   -3.4540    0.8060 c3        1 MOL     -0.065969
      9 C4         -6.7450   -3.8160    1.4290 c         1 MOL      0.493908
     10 O2         -6.7710   -4.4330    2.5090 o         1 MOL     -0.494696
     11 C5         -8.6400   -2.2040    1.5480 c3        1 MOL     -0.180488
     12 C6         -9.8850   -1.5520    0.8440 c         1 MOL      0.652553
     13 O3         -9.9430   -1.4320   -0.4180 o         1 MOL     -0.627537
     14 O4        -10.7430   -1.0310    1.5740 o         1 MOL     -0.627537
     15 H4         -9.8140   -4.4530    1.4570 hn        1 MOL      0.328092
     16 H5         -7.9050   -3.1440   -0.2320 h1        1 MOL      0.042347
     17 H6         -7.8240   -1.4950    1.6530 hc        1 MOL      0.064014
     18 H7         -9.0030   -2.4990    2.5410 hc        1 MOL      0.064014
     19 N2         -5.6220   -3.4470    0.7610 n         1 MOL     -0.348806
     20 C7         -4.2810   -3.8220    1.2260 c3        1 MOL      0.134945
     21 C8         -3.4860   -2.8620    2.1310 c         1 MOL      0.542142
     22 O5         -2.8380   -3.3470    3.0540 o         1 MOL     -0.554172
     23 C9         -3.3450   -4.0770    0.0100 c3        1 MOL     -0.385052
     24 C10        -3.7190   -5.2360   -0.9960 c3        1 MOL      0.282224
     25 C11        -2.8590   -5.2210   -2.3060 c3        1 MOL      0.045659
     26 C12        -3.1480   -6.3850   -3.2540 c3        1 MOL     -0.019590
     27 N3         -4.0040   -5.8950   -4.3330 n4        1 MOL     -0.130130
     28 H8         -5.6120   -3.1510   -0.2100 hn        1 MOL      0.281022
     29 H9         -4.2750   -4.7050    1.8740 h1        1 MOL      0.059145
     30 H10        -2.3440   -4.2720    0.3690 hc        1 MOL      0.108532
     31 H11        -3.3110   -3.1930   -0.6240 hc        1 MOL      0.108532
     32 H12        -4.7710   -5.0990   -1.2260 hc        1 MOL     -0.042447
     33 H13        -3.6110   -6.2210   -0.5140 hc        1 MOL     -0.042447
     34 H14        -1.7910   -5.2480   -2.1180 hc        1 MOL     -0.016782
     35 H15        -3.0660   -4.2490   -2.7630 hc        1 MOL     -0.016782
     36 H16        -3.6110   -7.1780   -2.6540 hx        1 MOL      0.062254
     37 H17        -2.2880   -6.8280   -3.7500 hx        1 MOL      0.062254
     38 H18        -4.9070   -5.5440   -4.0420 hn        1 MOL      0.226681
     39 H19        -3.4420   -5.2670   -4.8950 hn        1 MOL      0.226681
     40 H20        -4.1330   -6.6410   -5.0060 hn        1 MOL      0.226681
     41 N4         -3.7140   -1.5510    2.1500 n         1 MOL     -0.471647
     42 C13        -4.4280   -0.7030    1.2160 c3        1 MOL      0.016119
     43 C14        -4.8230    0.6530    1.9050 c         1 MOL      0.669902
     44 O6         -4.6360    0.8080    3.1280 o         1 MOL     -0.560583
     45 C15        -3.4270   -0.2840    0.1070 c3        1 MOL     -0.221586
     46 C16        -2.0380    0.1110    0.6030 c         1 MOL      0.996190
     47 O7         -1.8350    1.2470    0.9350 o         1 MOL     -0.830802
     48 O8         -1.0560   -0.6670    0.6120 o         1 MOL     -0.830802
     49 H21        -3.2460   -1.0380    2.8950 hn        1 MOL      0.331226
     50 H22        -5.3910   -1.0410    0.8230 h1        1 MOL      0.050890
     51 H23        -3.8790    0.5110   -0.4810 hc        1 MOL      0.034279
     52 H24        -3.4390   -1.1140   -0.6110 hc        1 MOL      0.034279
     53 N5         -5.2820    1.6030    1.1490 n         1 MOL     -0.515294
     54 C17        -5.5790    2.9870    1.5190 c3        1 MOL      0.003563
     55 C18        -4.7300    4.1220    0.8650 c         1 MOL      0.556520
     56 O9         -3.5570    3.9290    0.4700 o         1 MOL     -0.497318
     57 H25        -5.2070    1.5490    0.1470 hn        1 MOL      0.303263
     58 H26        -5.3910    3.1350    2.5900 h1        1 MOL      0.091125
     59 H27        -6.6250    3.2720    1.3980 h1        1 MOL      0.091125
     60 N6         -5.2280    5.4030    0.8450 n         1 MOL     -0.585918
     61 C19        -4.5070    6.4870    0.1530 c3        1 MOL      0.248733
     62 C20        -4.5470    6.3110   -1.4140 c         1 MOL      0.382554
     63 O10        -5.6810    6.2620   -1.9760 o         1 MOL     -0.528290
     64 C21        -4.9730    7.8960    0.4890 c3        1 MOL     -0.273514
     65 C22        -4.7860    8.1280    2.0160 c         1 MOL      0.711982
     66 O11        -5.5930    7.5640    2.8330 o         1 MOL     -0.633207
     67 O12        -3.9710    8.9670    2.4590 o         1 MOL     -0.633207
     68 H28        -6.1900    5.5060    1.1220 hn        1 MOL      0.326272
     69 H29        -3.4550    6.4280    0.4350 h1        1 MOL      0.015004
     70 H30        -5.9830    8.1420    0.1700 hc        1 MOL      0.078617
     71 H31        -4.4120    8.6500   -0.0670 hc        1 MOL      0.078617
     72 N7         -3.4520    6.3740   -2.1690 n         1 MOL     -0.323512
     73 C23        -2.0440    6.3660   -1.6930 c3        1 MOL     -0.076735
     74 C24        -1.2110    5.3920   -2.5450 c         1 MOL      0.579345
     75 O13        -1.4630    5.2350   -3.6880 o         1 MOL     -0.505152
     76 H32        -3.6010    6.4920   -3.1560 hn        1 MOL      0.272819
     77 H33        -2.0190    5.9180   -0.6930 h1        1 MOL      0.070759
     78 H34        -1.5410    7.3190   -1.5440 h1        1 MOL      0.070759
     79 N8         -0.2150    4.7740   -1.9450 n         1 MOL     -0.547258
     80 C25         0.7770    3.9170   -2.6470 c3        1 MOL      0.029933
     81 C26         0.6920    2.4360   -2.3370 c         1 MOL      0.937796
     82 O14         0.1840    2.0260   -1.2840 o         1 MOL     -0.618814
     83 C27         2.1950    4.5000   -2.4440 c3        1 MOL      0.485406
     84 C28         3.3660    3.8180   -3.2110 c3        1 MOL     -0.454352
     85 O15         2.4770    4.3410   -1.1120 oh        1 MOL     -0.700297
     86 H35         0.0150    4.9050   -0.9680 hn        1 MOL      0.247782
     87 H36         0.5890    4.1020   -3.7010 h1        1 MOL      0.023612
     88 H37         2.1520    5.5750   -2.5950 h1        1 MOL     -0.010157
     89 H38         1.8750    4.8710   -0.5920 ho        1 MOL      0.399094
     90 H39         3.2300    2.7390   -3.2090 hc        1 MOL      0.120329
     91 H40         3.3260    4.2510   -4.2060 hc        1 MOL      0.120329
     92 H41         4.2340    4.0100   -2.5950 hc        1 MOL      0.120329
     93 N9          0.9790    1.5440   -3.2910 n         1 MOL     -0.913519
     94 C29         0.8010    0.0610   -3.2660 c3        1 MOL      0.248401
     95 C30         1.6220   -0.6950   -2.1600 c         1 MOL      0.614858
     96 O16         1.5550   -0.3090   -0.9960 o         1 MOL     -0.648125
     97 C31        -0.7010   -0.3390   -3.2820 c3        1 MOL      0.168879
     98 C32        -1.4700    0.2180   -4.5040 c3        1 MOL     -0.087151
     99 C33        -0.9340   -1.8410   -3.2900 c3        1 MOL     -0.598727
    100 C34        -0.8990   -0.2410   -5.8290 c3        1 MOL     -0.487858
    101 H42         0.9890    1.8670   -4.2450 hn        1 MOL      0.394100
    102 H43         1.2260   -0.2980   -4.1960 h1        1 MOL      0.004620
    103 H44        -1.1670   -0.0050   -2.3590 hc        1 MOL     -0.021469
    104 H45        -1.4710    1.3060   -4.5020 hc        1 MOL      0.101237
    105 H46        -2.5220   -0.0590   -4.4490 hc        1 MOL      0.101237
    106 H47        -2.0100   -1.9680   -3.3950 hc        1 MOL      0.127675
    107 H48        -0.3980   -2.3320   -4.1110 hc        1 MOL      0.127675
    108 H49        -0.6230   -2.3370   -2.3680 hc        1 MOL      0.127675
    109 H50        -1.4190    0.3220   -6.5940 hc        1 MOL      0.128576
    110 H51         0.1780   -0.0780   -5.8780 hc        1 MOL      0.128576
    111 H52        -1.2130   -1.2740   -5.9660 hc        1 MOL      0.128576
    112 N10         2.2200   -1.8160   -2.5460 n         1 MOL     -0.137627
    113 C35         3.0470   -2.7390   -1.6870 c3        1 MOL     -0.182080
    114 C36         4.5850   -2.6200   -1.9480 c         1 MOL      0.293577
    115 O17         5.4120   -3.5360   -1.7410 o         1 MOL     -0.504410
    116 C37         2.6040   -4.2260   -1.8240 c3        1 MOL      0.403357
    117 C38         2.4140   -4.7180   -3.2240 c3        1 MOL     -0.229913
    118 O18         1.3180   -4.3480   -1.1790 oh        1 MOL     -0.659630
    119 H53         2.0410   -2.0600   -3.5060 hn        1 MOL      0.206967
    120 H54         2.9660   -2.3410   -0.6740 h1        1 MOL      0.197145
    121 H55         3.3390   -4.8610   -1.3350 h1        1 MOL      0.028855
    122 H56         0.9120   -5.2110   -1.3330 ho        1 MOL      0.418808
    123 H57         2.5730   -5.7990   -3.2720 hc        1 MOL      0.047304
    124 H58         1.5120   -4.2630   -3.6210 hc        1 MOL      0.047304
    125 H59         3.0890   -4.1850   -3.9000 hc        1 MOL      0.047304
    126 N11         4.9770   -1.5210   -2.5810 n         1 MOL      0.019620
    127 C39         6.3790   -1.0660   -2.9030 c3        1 MOL     -0.150615
    128 C40         6.9620   -0.4640   -1.5910 c         1 MOL      0.497378
    129 O19         7.0680    0.7610   -1.4640 o         1 MOL     -0.514357
    130 C41         6.3470   -0.0310   -4.0670 c3        1 MOL      0.399714
    131 C42         5.9770   -0.8030   -5.3670 c3        1 MOL     -0.111132
    132 O20         5.4550    1.0070   -3.7320 oh        1 MOL     -0.596433
    133 H60         4.2020   -0.9820   -2.9450 hn        1 MOL      0.027237
    134 H61         7.0260   -1.8880   -3.2360 h1        1 MOL      0.075646
    135 H62         7.3530    0.3380   -4.2390 h1        1 MOL     -0.019776
    136 H63         5.7630    1.5020   -2.9770 ho        1 MOL      0.380345
    137 H64         5.0650   -1.3450   -5.0980 hc        1 MOL      0.027069
    138 H65         5.8380   -0.0860   -6.1680 hc        1 MOL      0.027069
    139 H66         6.6560   -1.5930   -5.6860 hc        1 MOL      0.027069
    140 N12         7.1810   -1.2790   -0.6010 n         1 MOL     -0.367489
    141 C43         7.2470   -1.0970    0.8510 c3        1 MOL      0.087011
    142 C44         6.0330   -0.4870    1.4510 c         1 MOL      0.488628
    143 O21         5.3030    0.3180    0.8600 o         1 MOL     -0.531091
    144 C45         8.5160   -0.3690    1.1960 c3        1 MOL     -0.332777
    145 C46         9.7640   -0.9790    0.5440 c3        1 MOL     -0.017729
    146 C47        11.0060   -0.1630    1.0380 c3        1 MOL      0.180882
    147 C48        12.2710   -0.4220    0.2490 c3        1 MOL     -0.056517
    148 N13        13.4890    0.2720    0.7850 n4        1 MOL     -0.136417
    149 H67         7.0290   -2.2480   -0.8640 hn        1 MOL      0.217027
    150 H68         7.3470   -2.1210    1.2130 h1        1 MOL      0.108067
    151 H69         8.6780   -0.4690    2.2720 hc        1 MOL      0.128583
    152 H70         8.4830    0.6790    0.8970 hc        1 MOL      0.128583
    153 H71         9.7240   -0.9290   -0.5480 hc        1 MOL      0.019359
    154 H72         9.8540   -1.9960    0.9130 hc        1 MOL      0.019359
    155 H73        11.0620   -0.4330    2.0960 hc        1 MOL     -0.007775
    156 H74        10.7370    0.8890    1.1250 hc        1 MOL     -0.007775
    157 H75        12.2420   -0.0050   -0.7560 hx        1 MOL      0.067930
    158 H76        12.5070   -1.4870    0.1540 hx        1 MOL      0.067930
    159 H77        14.1560    0.3210    0.0290 hn        1 MOL      0.185136
    160 H78        13.3170    1.1560    1.2320 hn        1 MOL      0.185136
    161 H79        13.8380   -0.3480    1.5110 hn        1 MOL      0.185136
    162 N14         5.6340   -1.0980    2.5640 n         1 MOL     -0.335765
    163 C49         4.4190   -0.9170    3.2870 c3        1 MOL      0.065378
    164 C50         3.2790   -1.5160    2.5820 c         1 MOL      0.542719
    165 O22         2.4630   -0.7360    2.1330 o         1 MOL     -0.634954
    166 C51         4.6420   -1.3640    4.8040 c3        1 MOL      0.008939
    167 C52         5.3690   -0.2100    5.5580 c3        1 MOL     -0.288206
    168 C53         5.7520   -0.7590    6.9360 c         1 MOL      0.649068
    169 O23         4.9740   -0.7600    7.9320 o         1 MOL     -0.657602
    170 O24         6.7650   -1.5180    7.0020 o         1 MOL     -0.657602
    171 H80         6.3620   -1.7300    2.8620 hn        1 MOL      0.232669
    172 H81         4.2290    0.1520    3.3590 h1        1 MOL      0.056962
    173 H82         5.2150   -2.2920    4.8180 hc        1 MOL      0.075868
    174 H83         3.6830   -1.5160    5.2980 hc        1 MOL      0.075868
    175 H84         4.6340    0.5860    5.6550 hc        1 MOL      0.041156
    176 H85         6.3010    0.1190    5.0950 hc        1 MOL      0.041156
    177 N15         3.0930   -2.8240    2.3750 n         1 MOL     -0.443435
    178 C54         4.0740   -3.9410    2.7680 c3        1 MOL      0.039610
    179 H86         4.0210   -4.1090    3.8440 h1        1 MOL      0.042220
    180 H87         3.8090   -4.8590    2.2430 h1        1 MOL      0.042220
    181 H88         5.0880   -3.6470    2.4970 h1        1 MOL      0.042220
    182 H89         2.2490   -2.9160    1.8260 hn        1 MOL      0.316520
    183 Ca1         0.7310    1.0910    1.1390 Ca        1 MOL      1.795292
    184 O25         0.2860    3.8260    1.4040 oh        1 MOL     -0.854325
    185 H90        -0.0190    3.8940    2.3100 ho        1 MOL      0.422119
    186 H91         0.3240    4.7290    1.0930 ho        1 MOL      0.422119
    187 O26        -0.5620    0.7440    3.3890 oh        1 MOL     -0.854325
    188 H92        -0.2170    1.1220    4.2020 ho        1 MOL      0.422119
    189 H93        -1.3580    1.2210    3.2180 ho        1 MOL      0.422119
    190 O27         2.2160    2.3960    3.0730 oh        1 MOL     -0.854325
    191 H94         3.1610    2.3260    3.2350 ho        1 MOL      0.422119
    192 H95         1.8810    2.8600    3.8420 ho        1 MOL      0.422119
    193 O28         3.1220    2.0240    0.2760 oh        1 MOL     -0.854325
    194 H96         3.9100    1.5450    0.5550 ho        1 MOL      0.422119
    195 H97         3.4540    2.7830   -0.2080 ho        1 MOL      0.422119
@<TRIPOS>BOND
     1    1    2 1   
     2    1    4 1   
     3    1    5 1   
     4    1    6 1   
     5    2    3 2   
     6    2    7 1   
     7    7    8 1   
     8    7   15 1   
     9    8    9 1   
    10    8   11 1   
    11    8   16 1   
    12    9   10 2   
    13    9   19 1   
    14   11   12 1   
    15   11   17 1   
    16   11   18 1   
    17   12   13 1   
    18   12   14 1   
    19   19   20 1   
    20   19   28 1   
    21   20   21 1   
    22   20   23 1   
    23   20   29 1   
    24   21   22 2   
    25   21   41 1   
    26   23   24 1   
    27   23   30 1   
    28   23   31 1   
    29   24   25 1   
    30   24   32 1   
    31   24   33 1   
    32   25   26 1   
    33   25   34 1   
    34   25   35 1   
    35   26   27 1   
    36   26   36 1   
    37   26   37 1   
    38   27   38 1   
    39   27   39 1   
    40   27   40 1   
    41   41   42 1   
    42   41   49 1   
    43   42   43 1   
    44   42   45 1   
    45   42   50 1   
    46   43   44 2   
    47   43   53 1   
    48   45   46 1   
    49   45   51 1   
    50   45   52 1   
    51   46   47 1   
    52   46   48 1   
    53   53   54 1   
    54   53   57 1   
    55   54   55 1   
    56   54   58 1   
    57   54   59 1   
    58   55   56 2   
    59   55   60 1   
    60   60   61 1   
    61   60   68 1   
    62   61   62 1   
    63   61   64 1   
    64   61   69 1   
    65   62   63 2   
    66   62   72 1   
    67   64   65 1   
    68   64   70 1   
    69   64   71 1   
    70   65   66 1   
    71   65   67 1   
    72   72   73 1   
    73   72   76 1   
    74   73   74 1   
    75   73   77 1   
    76   73   78 1   
    77   74   75 2   
    78   74   79 1   
    79   79   80 1   
    80   79   86 1   
    81   80   81 1   
    82   80   83 1   
    83   80   87 1   
    84   81   82 2   
    85   81   93 1   
    86   83   84 1   
    87   83   85 1   
    88   83   88 1   
    89   84   90 1   
    90   84   91 1   
    91   84   92 1   
    92   85   89 1   
    93   93   94 1   
    94   93  101 1   
    95   94   95 1   
    96   94   97 1   
    97   94  102 1   
    98   95   96 2   
    99   95  112 1   
   100   97   98 1   
   101   97   99 1   
   102   97  103 1   
   103   98  100 1   
   104   98  104 1   
   105   98  105 1   
   106   99  106 1   
   107   99  107 1   
   108   99  108 1   
   109  100  109 1   
   110  100  110 1   
   111  100  111 1   
   112  112  113 1   
   113  112  119 1   
   114  113  114 1   
   115  113  116 1   
   116  113  120 1   
   117  114  115 2   
   118  114  126 1   
   119  116  117 1   
   120  116  118 1   
   121  116  121 1   
   122  117  123 1   
   123  117  124 1   
   124  117  125 1   
   125  118  122 1   
   126  126  127 1   
   127  126  133 1   
   128  127  128 1   
   129  127  130 1   
   130  127  134 1   
   131  128  129 2   
   132  128  140 1   
   133  130  131 1   
   134  130  132 1   
   135  130  135 1   
   136  131  137 1   
   137  131  138 1   
   138  131  139 1   
   139  132  136 1   
   140  140  141 1   
   141  140  149 1   
   142  141  142 1   
   143  141  144 1   
   144  141  150 1   
   145  142  143 2   
   146  142  162 1   
   147  144  145 1   
   148  144  151 1   
   149  144  152 1   
   150  145  146 1   
   151  145  153 1   
   152  145  154 1   
   153  146  147 1   
   154  146  155 1   
   155  146  156 1   
   156  147  148 1   
   157  147  157 1   
   158  147  158 1   
   159  148  159 1   
   160  148  160 1   
   161  148  161 1   
   162  162  163 1   
   163  162  171 1   
   164  163  164 1   
   165  163  166 1   
   166  163  172 1   
   167  164  165 2   
   168  164  177 1   
   169  166  167 1   
   170  166  173 1   
   171  166  174 1   
   172  167  168 1   
   173  167  175 1   
   174  167  176 1   
   175  168  169 1   
   176  168  170 1   
   177  177  178 1   
   178  177  182 1   
   179  178  179 1   
   180  178  180 1   
   181  178  181 1   
   182  184  185 1   
   183  184  186 1   
   184  187  188 1   
   185  187  189 1   
   186  190  191 1   
   187  190  192 1   
   188  193  194 1   
   189  193  195 1   
@<TRIPOS>SUBSTRUCTURE
     1 MOL         1 TEMP              0 ****  ****    0 ROOT
