@<TRIPOS>MOLECULE
MOL
  195   189     1     0     0
SMALL
resp


@<TRIPOS>ATOM
      1 C1          4.2920   -2.4380   -2.4690 c3        1 MOL     -0.106208
      2 C2          3.3300   -3.2630   -1.5140 c         1 MOL      0.447092
      3 O1          2.2350   -2.7950   -1.3110 o         1 MOL     -0.434235
      4 H1          3.7090   -1.7090   -3.0300 hc        1 MOL      0.017427
      5 H2          5.0410   -1.9180   -1.8700 hc        1 MOL      0.017427
      6 H3          4.7880   -3.1170   -3.1620 hc        1 MOL      0.017427
      7 N1          3.7530   -4.3660   -0.8410 n         1 MOL     -0.288344
      8 C3          2.9090   -5.1510    0.1230 c3        1 MOL     -0.146181
      9 C4          1.4420   -5.3810   -0.3190 c         1 MOL      0.847522
     10 O2          0.6010   -5.3700    0.5510 o         1 MOL     -0.562251
     11 C5          3.0370   -4.3980    1.4420 c3        1 MOL     -0.493874
     12 C6          4.5300   -4.0650    1.8730 c         1 MOL      0.802206
     13 O3          5.5060   -4.8260    1.6350 o         1 MOL     -0.689569
     14 O4          4.6520   -3.0530    2.6430 o         1 MOL     -0.689569
     15 H4          4.7210   -4.5700   -1.0180 hn        1 MOL      0.129231
     16 H5          3.3490   -6.1400    0.2250 h1        1 MOL      0.100697
     17 H6          2.6220   -5.0310    2.2310 hc        1 MOL      0.170108
     18 H7          2.4800   -3.4750    1.2850 hc        1 MOL      0.170108
     19 N2          1.1530   -5.5070   -1.5640 n         1 MOL     -0.796908
     20 C7         -0.2020   -5.4480   -2.1200 c3        1 MOL      0.140065
     21 C8         -1.1480   -6.4490   -1.4250 c         1 MOL      0.545525
     22 O5         -0.9320   -7.6550   -1.2670 o         1 MOL     -0.572843
     23 C9         -0.1760   -5.6280   -3.7100 c3        1 MOL      0.087622
     24 C10         0.4310   -6.9580   -4.1570 c3        1 MOL      0.251560
     25 C11         0.3740   -4.3430   -4.4030 c3        1 MOL     -0.315983
     26 C12        -0.2530   -7.4370   -5.4680 c3        1 MOL     -0.193798
     27 H8          1.9550   -5.5070   -2.1900 hn        1 MOL      0.335934
     28 H9         -0.5230   -4.4140   -1.9830 h1        1 MOL      0.121823
     29 H10        -1.2320   -5.7140   -3.9510 hc        1 MOL      0.010667
     30 H11         0.3490   -7.7710   -3.4300 hc        1 MOL     -0.069781
     31 H12         1.5070   -6.7920   -4.2410 hc        1 MOL     -0.069781
     32 H13         1.3810   -4.0840   -4.0630 hc        1 MOL      0.073727
     33 H14         0.2970   -4.3370   -5.4960 hc        1 MOL      0.073727
     34 H15        -0.2550   -3.5430   -4.0070 hc        1 MOL      0.073727
     35 H16         0.3270   -8.1800   -6.0270 hc        1 MOL      0.029123
     36 H17        -1.3000   -7.6940   -5.3170 hc        1 MOL      0.029123
     37 H18        -0.2430   -6.6660   -6.2430 hc        1 MOL      0.029123
     38 N3         -2.2640   -6.0180   -0.8210 n         1 MOL     -0.536502
     39 C13        -2.9610   -4.7080   -0.6460 c3        1 MOL      0.028942
     40 C14        -4.1110   -4.9890    0.4020 c         1 MOL      0.549143
     41 O6         -5.1730   -5.5680    0.0070 o         1 MOL     -0.529827
     42 C15        -3.6310   -4.2190   -1.9740 c3        1 MOL     -0.337367
     43 C16        -4.4290   -2.9180   -1.7800 c         1 MOL      0.689233
     44 O7         -5.4040   -2.7790   -2.5340 o         1 MOL     -0.683050
     45 O8         -4.2000   -2.2230   -0.7800 o         1 MOL     -0.683050
     46 H19        -2.8360   -6.8110   -0.5530 hn        1 MOL      0.309147
     47 H20        -2.2040   -4.0190   -0.2830 h1        1 MOL      0.081454
     48 H21        -4.2300   -5.0220   -2.3810 hc        1 MOL      0.092823
     49 H22        -2.8530   -3.9590   -2.7000 hc        1 MOL      0.092823
     50 N4         -3.7380   -4.8830    1.6330 n         1 MOL     -0.340868
     51 C17        -4.5470   -5.2510    2.7790 c3        1 MOL     -0.154311
     52 C18        -5.6270   -4.2670    3.1550 c         1 MOL      0.567334
     53 O9         -6.4280   -4.5470    4.0400 o         1 MOL     -0.603035
     54 H23        -2.8350   -4.4380    1.7440 hn        1 MOL      0.309711
     55 H24        -3.8850   -5.3600    3.6410 h1        1 MOL      0.096646
     56 H25        -4.9760   -6.2520    2.7540 h1        1 MOL      0.096646
     57 N5         -5.5460   -3.0570    2.6030 n         1 MOL     -0.364837
     58 C19        -6.3830   -1.8990    2.9440 c3        1 MOL      0.326091
     59 C20        -7.2710   -1.3560    1.7810 c         1 MOL      0.212218
     60 O10        -8.4550   -1.1350    1.9710 o         1 MOL     -0.529206
     61 C21        -5.4970   -0.8190    3.5600 c3        1 MOL     -0.281256
     62 C22        -4.3690   -0.3670    2.6220 c         1 MOL      0.651700
     63 O11        -3.2560   -0.9970    2.5050 o         1 MOL     -0.644268
     64 O12        -4.6160    0.5300    1.7930 o         1 MOL     -0.644268
     65 H26        -4.7530   -2.9350    1.9850 hn        1 MOL      0.161924
     66 H27        -7.0980   -2.1190    3.7330 h1        1 MOL      0.020959
     67 H28        -5.0390   -1.1950    4.4730 hc        1 MOL      0.038668
     68 H29        -6.2170   -0.0300    3.7550 hc        1 MOL      0.038668
     69 N6         -6.7810   -1.2950    0.5510 n         1 MOL     -0.067579
     70 C23        -7.5170   -0.6100   -0.5380 c3        1 MOL     -0.194277
     71 C24        -7.5680    0.9100   -0.4990 c         1 MOL      0.534954
     72 O13        -8.4070    1.4450   -1.1940 o         1 MOL     -0.592970
     73 H30        -5.8840   -1.7010    0.3270 hn        1 MOL      0.222716
     74 H31        -8.5490   -0.9640   -0.5800 h1        1 MOL      0.091706
     75 H32        -6.9880   -0.8440   -1.4490 h1        1 MOL      0.091706
     76 N7         -6.7590    1.4340    0.4370 n         1 MOL     -0.004665
     77 C25        -6.6770    2.8690    0.7020 c3        1 MOL     -0.002035
     78 C26        -6.2430    3.7940   -0.4720 c         1 MOL      0.530276
     79 O14        -6.7790    4.8870   -0.6010 o         1 MOL     -0.549203
     80 C27        -7.9270    3.3770    1.5190 c3        1 MOL     -0.009281
     81 C28        -8.5440    2.3210    2.4420 c3        1 MOL     -0.017221
     82 C29        -9.6590    2.8030    3.3730 c         1 MOL      0.598680
     83 N8        -10.2770    1.8740    3.9400 n         1 MOL     -0.692300
     84 O15        -9.8460    3.9730    3.6430 o         1 MOL     -0.613079
     85 H33        -6.0120    0.8790    0.8150 hn        1 MOL      0.114499
     86 H34        -5.9500    2.9980    1.5040 h1        1 MOL      0.047548
     87 H35        -8.6570    3.7660    0.8060 hc        1 MOL      0.004957
     88 H36        -7.5780    4.2450    2.0840 hc        1 MOL      0.004957
     89 H37        -7.7590    1.9340    3.0810 hc        1 MOL      0.025845
     90 H38        -9.0350    1.5530    1.8310 hc        1 MOL      0.025845
     91 H39       -10.1640    0.8660    3.8280 hn        1 MOL      0.314648
     92 H40       -10.7770    2.2000    4.7550 hn        1 MOL      0.314648
     93 N9         -5.4600    3.2350   -1.3770 n         1 MOL     -0.460082
     94 C30        -5.0530    3.7910   -2.6940 c3        1 MOL      0.108792
     95 C31        -3.5770    3.5210   -3.1510 c         1 MOL      0.433811
     96 O16        -2.9120    4.1920   -3.9650 o         1 MOL     -0.562253
     97 C32        -6.0540    3.3090   -3.7400 c3        1 MOL      0.242002
     98 C33        -6.2310    1.7750   -3.9000 c3        1 MOL     -0.334661
     99 C34        -7.4460    3.9370   -3.6640 c3        1 MOL     -0.334661
    100 H41        -5.1450    2.3080   -1.0940 hn        1 MOL      0.176455
    101 H42        -5.0430    4.8820   -2.7840 h1        1 MOL      0.064750
    102 H43        -5.6970    3.6870   -4.6930 hc        1 MOL     -0.040562
    103 H44        -6.8010    1.2650   -3.1200 hc        1 MOL      0.078458
    104 H45        -6.6490    1.5450   -4.8710 hc        1 MOL      0.078458
    105 H46        -5.2140    1.3810   -3.8080 hc        1 MOL      0.078458
    106 H47        -7.9890    3.7350   -4.5920 hc        1 MOL      0.078458
    107 H48        -7.9150    3.5390   -2.7710 hc        1 MOL      0.078458
    108 H49        -7.2940    5.0150   -3.5690 hc        1 MOL      0.078458
    109 N10        -3.0080    2.3920   -2.6970 n         1 MOL     -0.344863
    110 C35        -1.5400    2.2000   -2.6890 c3        1 MOL      0.104323
    111 C36        -0.9690    2.8780   -1.4270 c         1 MOL      0.620831
    112 O17        -1.6480    3.1780   -0.4710 o         1 MOL     -0.548491
    113 C37        -1.3070    0.6700   -2.8060 c3        1 MOL     -0.282549
    114 C38         0.1720    0.2840   -2.7550 c         1 MOL      0.743001
    115 N11         0.5150   -0.6130   -1.9370 n         1 MOL     -0.817985
    116 O18         0.9400    0.8610   -3.5070 o         1 MOL     -0.623112
    117 H50        -3.5480    1.7830   -2.0930 hn        1 MOL      0.315303
    118 H51        -1.0600    2.6360   -3.5690 h1        1 MOL      0.076718
    119 H52        -1.7800    0.2600   -3.6960 hc        1 MOL      0.068140
    120 H53        -1.7980    0.3060   -1.9030 hc        1 MOL      0.068140
    121 H54        -0.1110   -0.9380   -1.2100 hn        1 MOL      0.381959
    122 H55         1.3930   -1.0930   -2.0820 hn        1 MOL      0.381959
    123 N12         0.3740    3.0660   -1.4470 n         1 MOL     -0.533488
    124 C39         1.1270    3.6720   -0.3560 c3        1 MOL      0.240718
    125 C40         2.4880    4.2390   -0.8160 c         1 MOL      0.418918
    126 O19         2.9540    3.8000   -1.8470 o         1 MOL     -0.503812
    127 C41         1.3220    2.6510    0.7910 c3        1 MOL     -0.198687
    128 C42         1.5550    3.1860    2.2230 ca        1 MOL      0.021191
    129 C43         2.8640    3.2810    2.7430 ca        1 MOL     -0.182788
    130 C44         0.4900    3.5730    3.1420 ca        1 MOL     -0.182788
    131 C45         3.1070    3.7670    4.0270 ca        1 MOL     -0.190518
    132 C46         0.7930    4.0240    4.4360 ca        1 MOL     -0.190518
    133 C47         2.1410    4.1800    4.8780 ca        1 MOL      0.268083
    134 O20         2.4120    4.5130    6.1340 oh        1 MOL     -0.474082
    135 H56         0.8550    2.7330   -2.2690 hn        1 MOL      0.248900
    136 H57         0.5130    4.5120   -0.0510 h1        1 MOL      0.020103
    137 H58         2.1310    2.0020    0.4410 hc        1 MOL      0.115424
    138 H59         0.5170    1.9260    0.7800 hc        1 MOL      0.115424
    139 H60         3.6770    2.7900    2.2300 ha        1 MOL      0.164693
    140 H61        -0.5200    3.4250    2.7920 ha        1 MOL      0.164693
    141 H62         4.0720    3.6720    4.5080 ha        1 MOL      0.120137
    142 H63         0.0070    4.3460    5.0970 ha        1 MOL      0.120137
    143 H64         3.3710    4.5610    6.1660 ho        1 MOL      0.347677
    144 N13         3.1320    5.0870   -0.0090 n         1 MOL     -0.415369
    145 C48         4.5070    5.4290   -0.1800 c3        1 MOL      0.117972
    146 C49         5.3510    4.6100    0.8050 c         1 MOL      0.475965
    147 O21         5.5880    4.9830    1.9430 o         1 MOL     -0.594856
    148 C50         4.6710    6.9570    0.0840 c3        1 MOL      0.011834
    149 C51         3.9720    7.8590   -0.9510 c3        1 MOL     -0.190551
    150 C52         4.5780    9.2130   -0.8640 c         1 MOL      0.708375
    151 O22         5.6450    9.4570   -1.4010 o         1 MOL     -0.689186
    152 O23         3.9260   10.1090   -0.2170 o         1 MOL     -0.689186
    153 H65         2.6330    5.5830    0.7280 hn        1 MOL      0.298144
    154 H66         4.8500    5.2460   -1.1890 h1        1 MOL      0.118289
    155 H67         5.7500    7.1410    0.0400 hc        1 MOL      0.023276
    156 H68         4.3220    7.1470    1.0970 hc        1 MOL      0.023276
    157 H69         2.8840    7.8020   -0.8630 hc        1 MOL      0.020041
    158 H70         4.2160    7.3980   -1.9150 hc        1 MOL      0.020041
    159 N14         5.6940    3.3510    0.5350 n         1 MOL     -0.310961
    160 C53         5.6030    2.6540   -0.7510 c3        1 MOL     -0.198975
    161 C54         6.2450    3.3790   -1.9090 c         1 MOL      0.410239
    162 O24         7.2560    4.0530   -1.6730 o         1 MOL     -0.505515
    163 C55         6.2460    1.2240   -0.5940 c3        1 MOL      0.110955
    164 C56         5.4000    0.3810    0.2910 c3        1 MOL     -0.319449
    165 C57         6.1010   -0.8700    0.7740 c         1 MOL      0.745494
    166 O25         5.8780   -1.9320    0.1550 o         1 MOL     -0.651665
    167 O26         6.9100   -0.8670    1.7120 o         1 MOL     -0.651665
    168 H71         6.2560    2.9460    1.2770 hn        1 MOL      0.273230
    169 H72         4.5310    2.5620   -0.9320 h1        1 MOL      0.131789
    170 H73         7.2150    1.2860   -0.0830 hc        1 MOL      0.017145
    171 H74         6.3370    0.7900   -1.5840 hc        1 MOL      0.017145
    172 H75         4.5360    0.1490   -0.3360 hc        1 MOL      0.060416
    173 H76         5.0540    0.8980    1.1880 hc        1 MOL      0.060416
    174 N15         5.6910    3.2540   -3.1420 n         1 MOL     -0.330357
    175 C58         6.1550    3.9650   -4.3920 c3        1 MOL     -0.026984
    176 H77         5.3470    4.5890   -4.7770 h1        1 MOL      0.054729
    177 H78         7.0150    4.5920   -4.1570 h1        1 MOL      0.054729
    178 H79         6.4360    3.2300   -5.1470 h1        1 MOL      0.054729
    179 H80         4.8640    2.6780   -3.2430 hn        1 MOL      0.287367
    180 Ca1         7.6420   -3.3530    1.4020 Ca        1 MOL      1.630857
    181 O27         8.0090   -5.6490    3.1580 oh        1 MOL     -0.796906
    182 H81         7.6470   -6.5300    3.1590 ho        1 MOL      0.371134
    183 H82         8.5250   -5.6010    3.9650 ho        1 MOL      0.371134
    184 O28         9.9630   -4.2010    0.5780 oh        1 MOL     -0.796906
    185 H83        10.4850   -4.4540    1.3390 ho        1 MOL      0.371134
    186 H84        10.4880   -4.4850   -0.1710 ho        1 MOL      0.371134
    187 O29         9.8480   -2.1340    2.7790 oh        1 MOL     -0.796906
    188 H85        10.4900   -2.7700    3.1160 ho        1 MOL      0.371134
    189 H86        10.3320   -1.3150    2.7230 ho        1 MOL      0.371134
    190 O30         7.3450   -2.8440    4.0020 oh        1 MOL     -0.796906
    191 H87         7.8450   -2.4230    4.7060 ho        1 MOL      0.371134
    192 H88         6.5180   -2.3680    3.9690 ho        1 MOL      0.371134
    193 O31         8.9180   -1.5770   -0.6530 oh        1 MOL     -0.796906
    194 H89         9.8700   -1.5510   -0.7640 ho        1 MOL      0.371134
    195 H90         8.5850   -0.9060   -1.2500 ho        1 MOL      0.371134
@<TRIPOS>BOND
     1    1    2 1   
     2    1    4 1   
     3    1    5 1   
     4    1    6 1   
     5    2    3 2   
     6    2    7 1   
     7    7    8 1   
     8    7   15 1   
     9    8    9 1   
    10    8   11 1   
    11    8   16 1   
    12    9   10 2   
    13    9   19 1   
    14   11   12 1   
    15   11   17 1   
    16   11   18 1   
    17   12   13 1   
    18   12   14 1   
    19   19   20 1   
    20   19   27 1   
    21   20   21 1   
    22   20   23 1   
    23   20   28 1   
    24   21   22 2   
    25   21   38 1   
    26   23   24 1   
    27   23   25 1   
    28   23   29 1   
    29   24   26 1   
    30   24   30 1   
    31   24   31 1   
    32   25   32 1   
    33   25   33 1   
    34   25   34 1   
    35   26   35 1   
    36   26   36 1   
    37   26   37 1   
    38   38   39 1   
    39   38   46 1   
    40   39   40 1   
    41   39   42 1   
    42   39   47 1   
    43   40   41 2   
    44   40   50 1   
    45   42   43 1   
    46   42   48 1   
    47   42   49 1   
    48   43   44 1   
    49   43   45 1   
    50   50   51 1   
    51   50   54 1   
    52   51   52 1   
    53   51   55 1   
    54   51   56 1   
    55   52   53 2   
    56   52   57 1   
    57   57   58 1   
    58   57   65 1   
    59   58   59 1   
    60   58   61 1   
    61   58   66 1   
    62   59   60 2   
    63   59   69 1   
    64   61   62 1   
    65   61   67 1   
    66   61   68 1   
    67   62   63 1   
    68   62   64 1   
    69   69   70 1   
    70   69   73 1   
    71   70   71 1   
    72   70   74 1   
    73   70   75 1   
    74   71   72 2   
    75   71   76 1   
    76   76   77 1   
    77   76   85 1   
    78   77   78 1   
    79   77   80 1   
    80   77   86 1   
    81   78   79 2   
    82   78   93 1   
    83   80   81 1   
    84   80   87 1   
    85   80   88 1   
    86   81   82 1   
    87   81   89 1   
    88   81   90 1   
    89   82   83 1   
    90   82   84 2   
    91   83   91 1   
    92   83   92 1   
    93   93   94 1   
    94   93  100 1   
    95   94   95 1   
    96   94   97 1   
    97   94  101 1   
    98   95   96 2   
    99   95  109 1   
   100   97   98 1   
   101   97   99 1   
   102   97  102 1   
   103   98  103 1   
   104   98  104 1   
   105   98  105 1   
   106   99  106 1   
   107   99  107 1   
   108   99  108 1   
   109  109  110 1   
   110  109  117 1   
   111  110  111 1   
   112  110  113 1   
   113  110  118 1   
   114  111  112 2   
   115  111  123 1   
   116  113  114 1   
   117  113  119 1   
   118  113  120 1   
   119  114  115 1   
   120  114  116 2   
   121  115  121 1   
   122  115  122 1   
   123  123  124 1   
   124  123  135 1   
   125  124  125 1   
   126  124  127 1   
   127  124  136 1   
   128  125  126 2   
   129  125  144 1   
   130  127  128 1   
   131  127  137 1   
   132  127  138 1   
   133  128  129 ar  
   134  128  130 ar  
   135  129  131 ar  
   136  129  139 1   
   137  130  132 ar  
   138  130  140 1   
   139  131  133 ar  
   140  131  141 1   
   141  132  133 ar  
   142  132  142 1   
   143  133  134 1   
   144  134  143 1   
   145  144  145 1   
   146  144  153 1   
   147  145  146 1   
   148  145  148 1   
   149  145  154 1   
   150  146  147 2   
   151  146  159 1   
   152  148  149 1   
   153  148  155 1   
   154  148  156 1   
   155  149  150 1   
   156  149  157 1   
   157  149  158 1   
   158  150  151 1   
   159  150  152 1   
   160  159  160 1   
   161  159  168 1   
   162  160  161 1   
   163  160  163 1   
   164  160  169 1   
   165  161  162 2   
   166  161  174 1   
   167  163  164 1   
   168  163  170 1   
   169  163  171 1   
   170  164  165 1   
   171  164  172 1   
   172  164  173 1   
   173  165  166 1   
   174  165  167 1   
   175  174  175 1   
   176  174  179 1   
   177  175  176 1   
   178  175  177 1   
   179  175  178 1   
   180  181  182 1   
   181  181  183 1   
   182  184  185 1   
   183  184  186 1   
   184  187  188 1   
   185  187  189 1   
   186  190  191 1   
   187  190  192 1   
   188  193  194 1   
   189  193  195 1   
@<TRIPOS>SUBSTRUCTURE
     1 MOL         1 TEMP              0 ****  ****    0 ROOT
