@<TRIPOS>MOLECULE
MOL
  181   177     1     0     0
SMALL
resp


@<TRIPOS>ATOM
      1 C1          9.5420    7.4990   -0.4400 c3        1 MOL     -0.279255
      2 C2          8.5490    6.4250   -0.0530 c         1 MOL      0.649844
      3 O1          7.6310    6.7070    0.7370 o         1 MOL     -0.564844
      4 H1          9.6860    8.1800    0.3990 hc        1 MOL      0.068519
      5 H2         10.4950    7.0370   -0.6990 hc        1 MOL      0.068519
      6 H3          9.1620    8.0550   -1.2970 hc        1 MOL      0.068519
      7 N1          8.6680    5.1910   -0.5280 n         1 MOL     -0.735240
      8 C3          9.5480    4.6680   -1.5950 c3        1 MOL      0.611537
      9 C4         10.7550    3.8300   -1.0570 c         1 MOL      0.306615
     10 O2         11.7520    3.5930   -1.7190 o         1 MOL     -0.551827
     11 C5          8.7430    3.9370   -2.7020 c3        1 MOL     -0.548552
     12 C6          7.8200    2.8390   -2.3010 c         1 MOL      0.898875
     13 O3          7.2000    2.0970   -3.0820 o         1 MOL     -0.787227
     14 O4          7.6900    2.5120   -1.1060 o         1 MOL     -0.787227
     15 H4          7.9040    4.6020   -0.2360 hn        1 MOL      0.413738
     16 H5         10.0190    5.4680   -2.1560 h1        1 MOL     -0.043096
     17 H6          9.4190    3.4680   -3.4200 hc        1 MOL      0.115599
     18 H7          8.1540    4.7540   -3.1040 hc        1 MOL      0.115599
     19 N2         10.6790    3.3270    0.1630 n         1 MOL     -0.303504
     20 C7         11.6770    2.5520    0.7630 c3        1 MOL      0.300942
     21 C8         11.1100    1.3250    1.4610 c         1 MOL      0.373489
     22 O5         11.7610    0.8630    2.4070 o         1 MOL     -0.536784
     23 C9         12.3450    3.5270    1.7190 c3        1 MOL     -0.328646
     24 H8          9.8540    3.4850    0.7110 hn        1 MOL      0.244958
     25 H9         12.3990    2.2250    0.0030 h1        1 MOL      0.028198
     26 H10        11.6260    3.8920    2.4510 hc        1 MOL      0.077921
     27 H11        13.1600    3.0190    2.2360 hc        1 MOL      0.077921
     28 H12        12.8080    4.3390    1.1540 hc        1 MOL      0.077921
     29 N3         10.0060    0.7570    1.0030 n         1 MOL     -0.287541
     30 C10         9.4170   -0.4740    1.5600 c3        1 MOL      0.156923
     31 C11         8.8320   -1.2650    0.4210 c         1 MOL      0.360791
     32 O6          8.6690   -0.7200   -0.6890 o         1 MOL     -0.532858
     33 C12         8.2120   -0.1490    2.4640 c3        1 MOL     -0.255857
     34 C13         7.1600    0.8590    1.9450 c         1 MOL      0.704481
     35 O7          6.9690    2.0040    2.4770 o         1 MOL     -0.678555
     36 O8          6.5080    0.5820    0.9560 o         1 MOL     -0.678555
     37 H13         9.5110    1.1540    0.2120 hn        1 MOL      0.197833
     38 H14        10.1090   -1.0540    2.1540 h1        1 MOL      0.028519
     39 H15         8.6510    0.2250    3.3840 hc        1 MOL      0.055404
     40 H16         7.6910   -1.0550    2.7960 hc        1 MOL      0.055404
     41 N4          8.3710   -2.4890    0.7090 n         1 MOL     -0.260725
     42 C14         8.1350   -3.4680   -0.3170 c3        1 MOL     -0.294323
     43 C15         6.7320   -3.3870   -0.8270 c         1 MOL      0.729250
     44 O9          6.0120   -2.3760   -0.8670 o         1 MOL     -0.587116
     45 H17         8.3910   -2.8840    1.6410 hn        1 MOL      0.288035
     46 H18         8.3530   -4.4430    0.1320 h1        1 MOL      0.126047
     47 H19         8.8550   -3.2780   -1.1150 h1        1 MOL      0.126047
     48 N5          6.2050   -4.5340   -1.2690 n         1 MOL     -0.630829
     49 C16         4.8430   -4.7500   -1.8080 c3        1 MOL      0.130946
     50 C17         3.7850   -4.5700   -0.6790 c         1 MOL      0.771947
     51 O10         4.0970   -4.9570    0.3930 o         1 MOL     -0.537863
     52 C18         4.7050   -6.1630   -2.3750 c3        1 MOL     -0.336005
     53 C19         3.3680   -6.4150   -3.0190 c         1 MOL      0.673212
     54 N6          2.8700   -7.5650   -2.7990 n         1 MOL     -0.777740
     55 O11         2.8250   -5.7010   -3.8310 o         1 MOL     -0.559862
     56 H20         6.7290   -5.3910   -1.0960 hn        1 MOL      0.309142
     57 H21         4.7220   -3.9660   -2.5520 h1        1 MOL      0.036427
     58 H22         4.8820   -6.8770   -1.5780 hc        1 MOL      0.098133
     59 H23         5.4410   -6.3670   -3.1630 hc        1 MOL      0.098133
     60 H24         3.3490   -8.2580   -2.2500 hn        1 MOL      0.374265
     61 H25         2.0160   -7.7240   -3.3210 hn        1 MOL      0.374265
     62 N7          2.6330   -3.9460   -0.8980 n         1 MOL     -0.603770
     63 C20         1.4460   -3.9650    0.0610 c3        1 MOL     -0.083127
     64 C21         1.6360   -2.9350    1.1950 c         1 MOL      0.610421
     65 O12         2.5840   -2.1380    1.1820 o         1 MOL     -0.544912
     66 H26         2.5510   -3.3240   -1.6880 hn        1 MOL      0.305398
     67 H27         1.3130   -4.9750    0.4550 h1        1 MOL      0.139604
     68 H28         0.5570   -3.5810   -0.4520 h1        1 MOL      0.139604
     69 N8          0.8150   -2.9020    2.2390 n         1 MOL     -0.508809
     70 C22        -0.3160   -3.8260    2.3740 c3        1 MOL     -0.037294
     71 C23        -1.6870   -3.0250    2.2940 c         1 MOL      0.590761
     72 O13        -2.6950   -3.7040    2.3310 o         1 MOL     -0.576794
     73 C24        -0.3410   -4.7210    3.6550 c3        1 MOL      0.401865
     74 C25         0.8290   -5.6490    3.7860 c3        1 MOL     -0.457538
     75 O14        -0.3790   -3.8130    4.7270 oh        1 MOL     -0.558865
     76 H29         0.9990   -2.1960    2.9430 hn        1 MOL      0.340010
     77 H30        -0.4560   -4.4600    1.4970 h1        1 MOL      0.017879
     78 H31        -1.2330   -5.3370    3.7340 h1        1 MOL      0.049446
     79 H32         0.5400   -3.6090    4.9180 ho        1 MOL      0.359875
     80 H33         0.6570   -6.1130    4.7530 hc        1 MOL      0.102700
     81 H34         0.6720   -6.4450    3.0480 hc        1 MOL      0.102700
     82 H35         1.8440   -5.2980    3.6280 hc        1 MOL      0.102700
     83 N9         -1.6660   -1.7150    2.2510 n         1 MOL     -0.424305
     84 C26        -2.8580   -0.8890    2.3320 c3        1 MOL      0.217621
     85 C27        -2.9210   -0.0670    1.0030 c         1 MOL      0.446098
     86 O15        -2.0660    0.7020    0.6510 o         1 MOL     -0.546211
     87 C28        -2.9000    0.0690    3.5470 c3        1 MOL      0.070956
     88 C29        -2.4480   -0.4530    4.8960 c3        1 MOL     -0.113733
     89 C30        -4.2970    0.6560    3.7150 c3        1 MOL     -0.212010
     90 C31        -3.2510   -1.5880    5.4080 c3        1 MOL     -0.349577
     91 H36        -0.8030   -1.2500    2.0160 hn        1 MOL      0.223232
     92 H37        -3.8100   -1.4100    2.4300 h1        1 MOL      0.094983
     93 H38        -2.2300    0.8850    3.2630 hc        1 MOL     -0.028481
     94 H39        -2.4830    0.3490    5.6280 hc        1 MOL      0.044616
     95 H40        -1.4310   -0.8210    4.7560 hc        1 MOL      0.044616
     96 H41        -4.3320    1.2980    4.5990 hc        1 MOL      0.093483
     97 H42        -4.4320    1.3200    2.8600 hc        1 MOL      0.093483
     98 H43        -5.0070   -0.1570    3.8240 hc        1 MOL      0.093483
     99 H44        -3.5740   -2.2590    4.6030 hc        1 MOL      0.083927
    100 H45        -2.6860   -2.1720    6.1310 hc        1 MOL      0.083927
    101 H46        -4.0570   -1.0920    5.9480 hc        1 MOL      0.083927
    102 N10        -4.0740   -0.1780    0.2870 n         1 MOL     -0.269853
    103 C32        -5.2850   -0.9410    0.4320 c3        1 MOL     -0.259331
    104 C33        -6.5270   -0.2370   -0.2560 c         1 MOL      0.556601
    105 O16        -6.3370    0.6800   -1.0180 o         1 MOL     -0.492412
    106 C34        -5.1470   -2.3030   -0.2340 c3        1 MOL      0.098766
    107 C35        -4.6510   -2.2460   -1.6710 c         1 MOL      0.715311
    108 O17        -5.4470   -2.7460   -2.4990 o         1 MOL     -0.738058
    109 O18        -3.4380   -1.9560   -1.8270 o         1 MOL     -0.738058
    110 H47        -4.0710    0.5030   -0.4560 hn        1 MOL      0.267881
    111 H48        -5.5750   -1.0220    1.4790 h1        1 MOL      0.092656
    112 H49        -6.0870   -2.8350   -0.1800 hc        1 MOL     -0.059383
    113 H50        -4.4030   -2.8630    0.3350 hc        1 MOL     -0.059383
    114 N11        -7.7160   -0.7400   -0.0200 n         1 MOL     -0.605152
    115 C36        -9.0020   -0.3960   -0.6450 c3        1 MOL      0.670013
    116 C37        -9.9940    0.1900    0.3360 c         1 MOL      0.071203
    117 O19        -9.9380   -0.1990    1.4710 o         1 MOL     -0.470475
    118 C38        -9.5630   -1.6750   -1.4000 c3        1 MOL     -0.343201
    119 C39       -10.8530   -1.5290   -2.1350 ca        1 MOL      0.177603
    120 C40       -12.0260   -1.4590   -1.3630 ca        1 MOL     -0.208572
    121 C41       -10.9330   -1.5060   -3.5700 ca        1 MOL     -0.208572
    122 C42       -13.2430   -1.2890   -1.9830 ca        1 MOL     -0.110831
    123 C43       -12.2010   -1.2970   -4.1400 ca        1 MOL     -0.110831
    124 C44       -13.3080   -1.2040   -3.4120 ca        1 MOL     -0.101610
    125 H51        -7.7820   -1.5960    0.5090 hn        1 MOL      0.331219
    126 H52        -8.8590    0.3650   -1.4140 h1        1 MOL     -0.096355
    127 H53        -9.7460   -2.4290   -0.6300 hc        1 MOL      0.087112
    128 H54        -8.7900   -1.9380   -2.1280 hc        1 MOL      0.087112
    129 H55       -11.9620   -1.6620   -0.2980 ha        1 MOL      0.150439
    130 H56       -10.0190   -1.5750   -4.1360 ha        1 MOL      0.150439
    131 H57       -14.1470   -1.2770   -1.3870 ha        1 MOL      0.098976
    132 H58       -12.2190   -1.2660   -5.2220 ha        1 MOL      0.098976
    133 H59       -14.3030   -1.1600   -3.8100 ha        1 MOL      0.080926
    134 N12       -10.8410    1.2080   -0.0990 n         1 MOL      0.194855
    135 C45       -10.7510    1.9750   -1.2690 c3        1 MOL     -0.182521
    136 C46        -9.4880    2.9250   -1.2630 c         1 MOL      0.702583
    137 O20        -9.2380    3.4980   -2.2730 o         1 MOL     -0.593256
    138 C47       -12.1140    2.6560   -1.4380 c3        1 MOL     -0.032881
    139 C48       -12.9110    2.2800   -0.2150 c3        1 MOL     -0.050273
    140 C49       -12.0390    1.4960    0.7120 c3        1 MOL     -0.141324
    141 H60       -10.7780    1.3620   -2.1700 h1        1 MOL      0.079213
    142 H61       -12.0580    3.7310   -1.5760 hc        1 MOL      0.032249
    143 H62       -12.6080    2.2700   -2.3290 hc        1 MOL      0.032249
    144 H63       -13.1610    3.2140    0.2920 hc        1 MOL      0.026199
    145 H64       -13.8740    1.8140   -0.3800 hc        1 MOL      0.026199
    146 H65       -11.6990    2.1000    1.5500 h1        1 MOL      0.071594
    147 H66       -12.5680    0.6140    1.0880 h1        1 MOL      0.071594
    148 N13        -8.7210    3.0630   -0.1700 n         1 MOL     -0.541290
    149 C50        -7.4840    3.8160    0.0180 c3        1 MOL      0.249202
    150 C51        -7.3850    5.1890   -0.6980 c         1 MOL      0.367959
    151 O21        -7.8940    6.2130   -0.2350 o         1 MOL     -0.560430
    152 C52        -7.1320    4.0120    1.5220 c3        1 MOL      0.015175
    153 C53        -6.8370    2.6640    2.0920 c3        1 MOL     -0.048330
    154 C54        -6.6940    2.6840    3.6170 c         1 MOL      0.710263
    155 O22        -7.6290    2.2040    4.3220 o         1 MOL     -0.726412
    156 O23        -5.7670    3.2960    4.1840 o         1 MOL     -0.726412
    157 H67        -8.9570    2.5410    0.6570 hn        1 MOL      0.296182
    158 H68        -6.7010    3.1990   -0.4290 h1        1 MOL      0.036351
    159 H69        -7.9870    4.4350    2.0510 hc        1 MOL      0.010416
    160 H70        -6.2240    4.5780    1.7270 hc        1 MOL      0.010416
    161 H71        -5.8920    2.3580    1.6430 hc        1 MOL     -0.069455
    162 H72        -7.6480    2.0150    1.7670 hc        1 MOL     -0.069455
    163 N14        -6.8010    5.3010   -1.9160 n         1 MOL     -0.260549
    164 C55        -6.1030    4.2880   -2.7290 c3        1 MOL     -0.177396
    165 H73        -6.6090    3.3280   -2.6250 h1        1 MOL      0.086912
    166 H74        -6.1140    4.5910   -3.7760 h1        1 MOL      0.086912
    167 H75        -5.0730    4.1940   -2.3880 h1        1 MOL      0.086912
    168 H76        -6.7120    6.2570   -2.2270 hn        1 MOL      0.235313
    169 Ca1         6.1770    0.2270   -1.5880 Ca        1 MOL      1.720549
    170 O24         7.8450   -0.8840   -3.5320 oh        1 MOL     -0.805102
    171 H77         8.2130   -0.3800   -4.2510 ho        1 MOL      0.398271
    172 H78         8.4330   -1.6480   -3.4580 ho        1 MOL      0.398271
    173 O25         4.1950    2.0380   -1.3720 oh        1 MOL     -0.805102
    174 H79         4.0710    2.6390   -0.6340 ho        1 MOL      0.398271
    175 H80         3.3080    1.8180   -1.6540 ho        1 MOL      0.398271
    176 O26         3.8730   -0.8140   -0.8380 oh        1 MOL     -0.805102
    177 H81         3.3600   -1.2880   -0.1830 ho        1 MOL      0.398271
    178 H82         3.3420   -0.8600   -1.6350 ho        1 MOL      0.398271
    179 O27         4.9400   -0.6670   -3.7940 oh        1 MOL     -0.805102
    180 H83         5.2250   -1.5590   -4.0210 ho        1 MOL      0.398271
    181 H84         5.3920   -0.1120   -4.4210 ho        1 MOL      0.398271
@<TRIPOS>BOND
     1    1    2 1   
     2    1    4 1   
     3    1    5 1   
     4    1    6 1   
     5    2    3 2   
     6    2    7 1   
     7    7    8 1   
     8    7   15 1   
     9    8    9 1   
    10    8   11 1   
    11    8   16 1   
    12    9   10 2   
    13    9   19 1   
    14   11   12 1   
    15   11   17 1   
    16   11   18 1   
    17   12   13 1   
    18   12   14 1   
    19   19   20 1   
    20   19   24 1   
    21   20   21 1   
    22   20   23 1   
    23   20   25 1   
    24   21   22 2   
    25   21   29 1   
    26   23   26 1   
    27   23   27 1   
    28   23   28 1   
    29   29   30 1   
    30   29   37 1   
    31   30   31 1   
    32   30   33 1   
    33   30   38 1   
    34   31   32 2   
    35   31   41 1   
    36   33   34 1   
    37   33   39 1   
    38   33   40 1   
    39   34   35 1   
    40   34   36 1   
    41   41   42 1   
    42   41   45 1   
    43   42   43 1   
    44   42   46 1   
    45   42   47 1   
    46   43   44 2   
    47   43   48 1   
    48   48   49 1   
    49   48   56 1   
    50   49   50 1   
    51   49   52 1   
    52   49   57 1   
    53   50   51 2   
    54   50   62 1   
    55   52   53 1   
    56   52   58 1   
    57   52   59 1   
    58   53   54 1   
    59   53   55 2   
    60   54   60 1   
    61   54   61 1   
    62   62   63 1   
    63   62   66 1   
    64   63   64 1   
    65   63   67 1   
    66   63   68 1   
    67   64   65 2   
    68   64   69 1   
    69   69   70 1   
    70   69   76 1   
    71   70   71 1   
    72   70   73 1   
    73   70   77 1   
    74   71   72 2   
    75   71   83 1   
    76   73   74 1   
    77   73   75 1   
    78   73   78 1   
    79   74   80 1   
    80   74   81 1   
    81   74   82 1   
    82   75   79 1   
    83   83   84 1   
    84   83   91 1   
    85   84   85 1   
    86   84   87 1   
    87   84   92 1   
    88   85   86 2   
    89   85  102 1   
    90   87   88 1   
    91   87   89 1   
    92   87   93 1   
    93   88   90 1   
    94   88   94 1   
    95   88   95 1   
    96   89   96 1   
    97   89   97 1   
    98   89   98 1   
    99   90   99 1   
   100   90  100 1   
   101   90  101 1   
   102  102  103 1   
   103  102  110 1   
   104  103  104 1   
   105  103  106 1   
   106  103  111 1   
   107  104  105 2   
   108  104  114 1   
   109  106  107 1   
   110  106  112 1   
   111  106  113 1   
   112  107  108 1   
   113  107  109 1   
   114  114  115 1   
   115  114  125 1   
   116  115  116 1   
   117  115  118 1   
   118  115  126 1   
   119  116  117 2   
   120  116  134 1   
   121  118  119 1   
   122  118  127 1   
   123  118  128 1   
   124  119  120 ar  
   125  119  121 ar  
   126  120  122 ar  
   127  120  129 1   
   128  121  123 ar  
   129  121  130 1   
   130  122  124 ar  
   131  122  131 1   
   132  123  124 ar  
   133  123  132 1   
   134  124  133 1   
   135  134  135 1   
   136  134  140 1   
   137  135  136 1   
   138  135  138 1   
   139  135  141 1   
   140  136  137 2   
   141  136  148 1   
   142  138  139 1   
   143  138  142 1   
   144  138  143 1   
   145  139  140 1   
   146  139  144 1   
   147  139  145 1   
   148  140  146 1   
   149  140  147 1   
   150  148  149 1   
   151  148  157 1   
   152  149  150 1   
   153  149  152 1   
   154  149  158 1   
   155  150  151 2   
   156  150  163 1   
   157  152  153 1   
   158  152  159 1   
   159  152  160 1   
   160  153  154 1   
   161  153  161 1   
   162  153  162 1   
   163  154  155 1   
   164  154  156 1   
   165  163  164 1   
   166  163  168 1   
   167  164  165 1   
   168  164  166 1   
   169  164  167 1   
   170  170  171 1   
   171  170  172 1   
   172  173  174 1   
   173  173  175 1   
   174  176  177 1   
   175  176  178 1   
   176  179  180 1   
   177  179  181 1   
@<TRIPOS>SUBSTRUCTURE
     1 MOL         1 TEMP              0 ****  ****    0 ROOT
