@<TRIPOS>MOLECULE
MOL
  186   183     1     0     0
SMALL
resp


@<TRIPOS>ATOM
      1 C1        -10.1670    1.9130    5.3470 c3        1 MOL     -0.391079
      2 C2        -10.2780    1.7630    3.7940 c         1 MOL      0.598919
      3 O1        -11.0160    0.9390    3.2750 o         1 MOL     -0.587862
      4 H1        -10.3140    0.9410    5.8170 hc        1 MOL      0.102326
      5 H2         -9.1800    2.2970    5.6060 hc        1 MOL      0.102326
      6 H3        -10.9310    2.6060    5.7010 hc        1 MOL      0.102326
      7 N1         -9.5320    2.5350    3.0410 n         1 MOL      0.018934
      8 C3         -9.5370    2.5650    1.6040 c3        1 MOL     -1.017147
      9 C4         -8.4360    1.7960    0.8460 c         1 MOL      0.893076
     10 O2         -7.2680    1.9570    1.1480 o         1 MOL     -0.639251
     11 C5         -9.6440    4.0230    1.2190 c3        1 MOL      0.245354
     12 C6         -8.6760    5.0830    1.7720 c         1 MOL      0.612853
     13 O3         -7.7280    4.7120    2.3930 o         1 MOL     -0.708765
     14 O4         -8.8510    6.2960    1.5730 o         1 MOL     -0.708765
     15 H4         -8.9430    3.2090    3.5240 hn        1 MOL      0.137679
     16 H5        -10.4680    2.1290    1.2400 h1        1 MOL      0.260158
     17 H6        -10.6440    4.3840    1.4930 hc        1 MOL      0.033311
     18 H7         -9.6850    4.1890    0.1420 hc        1 MOL      0.033311
     19 N2         -8.8430    1.1620   -0.3030 n         1 MOL     -0.472648
     20 C7         -8.1100    0.2000   -1.1610 c3        1 MOL     -0.008236
     21 C8         -6.9600    0.8370   -2.1030 c         1 MOL      0.513990
     22 O5         -6.8610    0.5340   -3.3100 o         1 MOL     -0.527798
     23 C9         -9.1160   -0.5310   -2.0600 c3        1 MOL      0.009766
     24 C10       -10.0810   -1.4110   -1.2960 c3        1 MOL     -0.053533
     25 C11       -11.0010   -2.1980   -2.2180 c3        1 MOL      0.162166
     26 C12       -11.8610   -3.1760   -1.4060 c3        1 MOL      0.079406
     27 N3        -13.0790   -3.7610   -2.1250 n4        1 MOL     -0.381042
     28 H8         -9.8000    1.4240   -0.5050 hn        1 MOL      0.312306
     29 H9         -7.6220   -0.5560   -0.5560 h1        1 MOL      0.101096
     30 H10        -8.5200   -1.2450   -2.6380 hc        1 MOL      0.033280
     31 H11        -9.6220    0.0910   -2.7950 hc        1 MOL      0.033280
     32 H12       -10.6890   -0.7720   -0.6620 hc        1 MOL      0.004235
     33 H13        -9.5180   -2.1320   -0.6910 hc        1 MOL      0.004235
     34 H14       -10.4470   -2.7590   -2.9680 hc        1 MOL     -0.013696
     35 H15       -11.6970   -1.5240   -2.7140 hc        1 MOL     -0.013696
     36 H16       -12.1190   -2.6890   -0.4720 hx        1 MOL      0.058439
     37 H17       -11.1920   -3.9830   -1.1130 hx        1 MOL      0.058439
     38 H18       -13.7130   -3.0900   -2.5360 hn        1 MOL      0.299300
     39 H19       -12.8150   -4.4780   -2.7920 hn        1 MOL      0.299300
     40 H20       -13.6010   -4.3300   -1.4740 hn        1 MOL      0.299300
     41 N4         -6.1350    1.6790   -1.4940 n         1 MOL      0.001239
     42 C13        -4.9500    2.3250   -2.0850 c3        1 MOL     -0.278562
     43 C14        -3.7250    2.5530   -1.1020 c         1 MOL      0.853873
     44 O6         -3.7220    3.4680   -0.2610 o         1 MOL     -0.759092
     45 C15        -5.3220    3.6810   -2.6480 c3        1 MOL     -0.182555
     46 C16        -6.3330    4.4660   -1.7920 c         1 MOL      0.460356
     47 O7         -6.8270    5.4840   -2.3850 o         1 MOL     -0.597520
     48 O8         -6.6550    4.2310   -0.5830 o         1 MOL     -0.597520
     49 H21        -6.2510    1.7490   -0.4910 hn        1 MOL      0.058500
     50 H22        -4.5650    1.7290   -2.9170 h1        1 MOL      0.127839
     51 H23        -5.8440    3.5320   -3.5880 hc        1 MOL      0.099765
     52 H24        -4.3860    4.2120   -2.7920 hc        1 MOL      0.099765
     53 N5         -2.7110    1.7160   -1.1600 n         1 MOL     -0.517602
     54 C17        -2.6040    0.3700   -1.6950 c3        1 MOL     -0.142018
     55 C18        -3.4810   -0.6120   -0.9540 c         1 MOL      0.640522
     56 O9         -3.7330   -0.5190    0.2490 o         1 MOL     -0.494355
     57 H25        -1.9300    1.9470   -0.5700 hn        1 MOL      0.300589
     58 H26        -1.5990   -0.0600   -1.6660 h1        1 MOL      0.129882
     59 H27        -2.9510    0.3490   -2.7220 h1        1 MOL      0.129882
     60 N6         -3.8690   -1.7830   -1.5730 n         1 MOL     -0.714623
     61 C19        -4.5970   -2.9290   -0.9800 c3        1 MOL      0.153217
     62 C20        -3.6310   -4.1060   -1.0660 c         1 MOL      0.518087
     63 O10        -2.7980   -4.1350   -1.9720 o         1 MOL     -0.483600
     64 C21        -5.8610   -3.2980   -1.8000 c3        1 MOL     -0.047511
     65 C22        -5.8260   -3.4890   -3.3420 c         1 MOL      0.785674
     66 O11        -5.1030   -2.7260   -3.9790 o         1 MOL     -0.689901
     67 O12        -6.3880   -4.3880   -3.9370 o         1 MOL     -0.689901
     68 H28        -3.4180   -2.0010   -2.4540 hn        1 MOL      0.363765
     69 H29        -4.7890   -2.7250    0.0690 h1        1 MOL      0.002958
     70 H30        -6.6630   -2.5760   -1.6420 hc        1 MOL     -0.061609
     71 H31        -6.1760   -4.2540   -1.3770 hc        1 MOL     -0.061609
     72 N7         -3.6890   -5.0910   -0.1690 n         1 MOL     -0.242640
     73 C23        -2.9340   -6.3320   -0.1630 c3        1 MOL     -0.348608
     74 C24        -1.5260   -6.1680    0.3630 c         1 MOL      0.619129
     75 O13        -0.6020   -6.9090    0.0090 o         1 MOL     -0.539166
     76 H32        -4.3200   -4.9020    0.6010 hn        1 MOL      0.239526
     77 H33        -2.9290   -6.8460   -1.1230 h1        1 MOL      0.151279
     78 H34        -3.4130   -6.9450    0.5940 h1        1 MOL      0.151279
     79 N8         -1.3840   -5.0970    1.2130 n         1 MOL     -0.288189
     80 C25        -0.0700   -4.7040    1.6680 c3        1 MOL     -0.132461
     81 C26         0.2940   -3.2510    1.1720 c         1 MOL      0.580763
     82 O14        -0.5160   -2.3380    1.0990 o         1 MOL     -0.544349
     83 C27        -0.0550   -4.9180    3.2290 c3        1 MOL      0.385831
     84 C28        -1.0470   -4.0780    4.0560 c3        1 MOL     -0.415397
     85 O15        -0.1910   -6.2530    3.6360 oh        1 MOL     -0.642527
     86 H35        -2.2520   -4.6690    1.5030 hn        1 MOL      0.204162
     87 H36         0.7140   -5.3680    1.3100 h1        1 MOL      0.124320
     88 H37         0.9310   -4.6880    3.6170 h1        1 MOL     -0.028442
     89 H38         0.1350   -6.3210    4.5330 ho        1 MOL      0.412396
     90 H39        -0.9610   -4.0940    5.1350 hc        1 MOL      0.106835
     91 H40        -0.8900   -3.0170    3.8360 hc        1 MOL      0.106835
     92 H41        -2.0490   -4.4420    3.8440 hc        1 MOL      0.106835
     93 N9          1.6230   -3.0350    1.0160 n         1 MOL     -0.521281
     94 C29         2.2070   -1.7590    0.4300 c3        1 MOL      0.067986
     95 C30         3.5430   -2.0280   -0.2760 c         1 MOL      0.449077
     96 O16         3.7890   -1.5310   -1.3460 o         1 MOL     -0.487019
     97 C31         2.2200   -0.4720    1.3530 c3        1 MOL      0.045334
     98 C32         2.4740    0.8000    0.5580 c3        1 MOL     -0.145127
     99 C33         3.3580   -0.6600    2.3960 c3        1 MOL     -0.337639
    100 C34         1.4540    1.1570   -0.4760 c3        1 MOL     -0.070167
    101 H42         2.1980   -3.8560    1.2020 hn        1 MOL      0.254534
    102 H43         1.4500   -1.5380   -0.3300 h1        1 MOL      0.132525
    103 H44         1.2700   -0.4000    1.8880 hc        1 MOL      0.098486
    104 H45         3.4070    0.6890    0.0110 hc        1 MOL      0.083926
    105 H46         2.4560    1.6270    1.2690 hc        1 MOL      0.083926
    106 H47         3.1520   -0.0290    3.2630 hc        1 MOL      0.080120
    107 H48         3.1820   -1.6550    2.8120 hc        1 MOL      0.080120
    108 H49         4.3480   -0.6170    1.9450 hc        1 MOL      0.080120
    109 H50         0.5210    1.1540    0.0910 hc        1 MOL      0.026529
    110 H51         1.7020    2.1540   -0.8430 hc        1 MOL      0.026529
    111 H52         1.2580    0.4350   -1.2670 hc        1 MOL      0.026529
    112 N10         4.3560   -2.9480    0.2980 n         1 MOL     -0.303813
    113 C35         5.6620   -3.2220   -0.1890 c3        1 MOL     -0.163919
    114 C36         6.7590   -3.3120    0.9120 c         1 MOL      0.638252
    115 O17         6.5750   -3.9210    1.9240 o         1 MOL     -0.532153
    116 C37         5.8260   -4.5740   -0.9110 c3        1 MOL      0.323596
    117 C38         4.8780   -4.6220   -2.1430 c3        1 MOL     -0.278395
    118 O18         7.1380   -4.6340   -1.4010 oh        1 MOL     -0.632756
    119 H53         4.1620   -3.2720    1.2290 hn        1 MOL      0.240521
    120 H54         5.8160   -2.5340   -1.0190 h1        1 MOL      0.158802
    121 H55         5.5950   -5.4250   -0.2690 h1        1 MOL      0.008293
    122 H56         7.2450   -5.5240   -1.7550 ho        1 MOL      0.400246
    123 H57         5.0100   -5.5840   -2.6420 hc        1 MOL      0.081174
    124 H58         3.8510   -4.6620   -1.7750 hc        1 MOL      0.081174
    125 H59         5.1080   -3.8670   -2.9020 hc        1 MOL      0.081174
    126 N11         7.9460   -2.6870    0.7100 n         1 MOL     -0.539138
    127 C39         9.1100   -2.5820    1.6040 c3        1 MOL      0.099499
    128 C40         9.5420   -1.1520    1.9410 c         1 MOL      0.464047
    129 O19         9.8250   -0.8160    3.1340 o         1 MOL     -0.557809
    130 C41        10.2660   -3.3790    0.9830 c3        1 MOL      0.447098
    131 C42        11.3560   -3.3930    2.0030 c3        1 MOL     -0.509775
    132 O20        10.7290   -2.7220   -0.2060 oh        1 MOL     -0.657209
    133 H60         7.9240   -2.0350   -0.0590 hn        1 MOL      0.237081
    134 H61         8.8390   -3.0250    2.5640 h1        1 MOL      0.078363
    135 H62         9.9190   -4.3810    0.7320 h1        1 MOL     -0.007772
    136 H63        10.3040   -3.1010   -0.9790 ho        1 MOL      0.389881
    137 H64        11.0070   -3.8890    2.9170 hc        1 MOL      0.134302
    138 H65        12.1210   -4.0480    1.6000 hc        1 MOL      0.134302
    139 H66        11.8820   -2.4490    2.1390 hc        1 MOL      0.134302
    140 N12         9.4990   -0.2410    0.9930 n         1 MOL     -0.278736
    141 C43         9.9170    1.2010    0.9220 c3        1 MOL     -0.087646
    142 C44         9.0140    1.9810   -0.0940 c         1 MOL      0.614904
    143 O21         8.5660    1.3690   -1.0470 o         1 MOL     -0.539776
    144 C45        11.4250    1.2800    0.6130 c3        1 MOL      0.166245
    145 C46        11.8920    0.7160   -0.8370 c3        1 MOL     -0.432069
    146 C47        11.6370    1.7370   -1.9300 c3        1 MOL     -0.020351
    147 C48        12.0920    1.1090   -3.2570 c3        1 MOL      0.048000
    148 N13        12.2370    2.1520   -4.3180 n4        1 MOL     -0.326349
    149 H67         9.2070   -0.5870    0.0860 hn        1 MOL      0.217031
    150 H68         9.7620    1.6510    1.8960 h1        1 MOL      0.099363
    151 H69        12.0780    0.8180    1.3550 hc        1 MOL      0.004544
    152 H70        11.8340    2.2780    0.7400 hc        1 MOL      0.004544
    153 H71        11.2520   -0.1620   -0.9470 hc        1 MOL      0.154592
    154 H72        12.9110    0.3370   -0.7380 hc        1 MOL      0.154592
    155 H73        12.1240    2.6900   -1.7440 hc        1 MOL      0.073057
    156 H74        10.5720    1.9670   -2.0300 hc        1 MOL      0.073057
    157 H75        11.3950    0.3040   -3.5040 hx        1 MOL      0.067748
    158 H76        13.0860    0.7010   -3.0560 hx        1 MOL      0.067748
    159 H77        11.3250    2.1690   -4.7410 hn        1 MOL      0.278638
    160 H78        12.7500    2.9790   -4.0480 hn        1 MOL      0.278638
    161 H79        12.8630    1.8430   -5.0570 hn        1 MOL      0.278638
    162 N14         8.8970    3.2100    0.1580 n         1 MOL     -0.588944
    163 C49         7.9060    4.0810   -0.4760 c3        1 MOL      0.170761
    164 C50         6.4560    3.5720   -0.2550 c         1 MOL      0.320415
    165 O22         5.6990    3.4930   -1.2070 o         1 MOL     -0.487032
    166 C51         8.3260    5.5080   -0.1460 c3        1 MOL     -0.069224
    167 C52         7.3740    6.4130   -0.9090 c3        1 MOL     -0.137356
    168 C53         7.6980    7.8940   -0.6830 c         1 MOL      0.692506
    169 O23         7.9220    8.2960    0.4810 o         1 MOL     -0.669113
    170 O24         7.8080    8.6680   -1.6650 o         1 MOL     -0.669113
    171 H80         9.4070    3.5900    0.9410 hn        1 MOL      0.315578
    172 H81         8.1350    3.9930   -1.5380 h1        1 MOL      0.065798
    173 H82         9.3640    5.6570   -0.4190 hc        1 MOL      0.032844
    174 H83         8.1750    5.6300    0.9240 hc        1 MOL      0.032844
    175 H84         6.3290    6.3250   -0.6210 hc        1 MOL      0.032071
    176 H85         7.3580    6.2650   -1.9950 hc        1 MOL      0.032071
    177 N15         5.9350    3.4670    0.9820 n         1 MOL     -0.151347
    178 C54         6.5480    3.4130    2.2500 c3        1 MOL     -0.137606
    179 H86         7.4310    4.0510    2.2530 h1        1 MOL      0.069092
    180 H87         5.8450    3.7600    3.0070 h1        1 MOL      0.069092
    181 H88         6.8410    2.3860    2.4690 h1        1 MOL      0.069092
    182 H89         4.9820    3.1450    0.9890 hn        1 MOL      0.211675
    183 Ca1        -5.3740    4.2930    1.6140 Ca        1 MOL      1.735061
    184 O25        -4.3790    1.6970    1.8420 oh        1 MOL     -0.839939
    185 H90        -4.8310    1.4290    2.6460 ho        1 MOL      0.389770
    186 H91        -3.8120    0.9600    1.6210 ho        1 MOL      0.389770
@<TRIPOS>BOND
     1    1    2 1   
     2    1    4 1   
     3    1    5 1   
     4    1    6 1   
     5    2    3 2   
     6    2    7 1   
     7    7    8 1   
     8    7   15 1   
     9    8    9 1   
    10    8   11 1   
    11    8   16 1   
    12    9   10 2   
    13    9   19 1   
    14   11   12 1   
    15   11   17 1   
    16   11   18 1   
    17   12   13 1   
    18   12   14 1   
    19   19   20 1   
    20   19   28 1   
    21   20   21 1   
    22   20   23 1   
    23   20   29 1   
    24   21   22 2   
    25   21   41 1   
    26   23   24 1   
    27   23   30 1   
    28   23   31 1   
    29   24   25 1   
    30   24   32 1   
    31   24   33 1   
    32   25   26 1   
    33   25   34 1   
    34   25   35 1   
    35   26   27 1   
    36   26   36 1   
    37   26   37 1   
    38   27   38 1   
    39   27   39 1   
    40   27   40 1   
    41   41   42 1   
    42   41   49 1   
    43   42   43 1   
    44   42   45 1   
    45   42   50 1   
    46   43   44 2   
    47   43   53 1   
    48   45   46 1   
    49   45   51 1   
    50   45   52 1   
    51   46   47 1   
    52   46   48 1   
    53   53   54 1   
    54   53   57 1   
    55   54   55 1   
    56   54   58 1   
    57   54   59 1   
    58   55   56 2   
    59   55   60 1   
    60   60   61 1   
    61   60   68 1   
    62   61   62 1   
    63   61   64 1   
    64   61   69 1   
    65   62   63 2   
    66   62   72 1   
    67   64   65 1   
    68   64   70 1   
    69   64   71 1   
    70   65   66 1   
    71   65   67 1   
    72   72   73 1   
    73   72   76 1   
    74   73   74 1   
    75   73   77 1   
    76   73   78 1   
    77   74   75 2   
    78   74   79 1   
    79   79   80 1   
    80   79   86 1   
    81   80   81 1   
    82   80   83 1   
    83   80   87 1   
    84   81   82 2   
    85   81   93 1   
    86   83   84 1   
    87   83   85 1   
    88   83   88 1   
    89   84   90 1   
    90   84   91 1   
    91   84   92 1   
    92   85   89 1   
    93   93   94 1   
    94   93  101 1   
    95   94   95 1   
    96   94   97 1   
    97   94  102 1   
    98   95   96 2   
    99   95  112 1   
   100   97   98 1   
   101   97   99 1   
   102   97  103 1   
   103   98  100 1   
   104   98  104 1   
   105   98  105 1   
   106   99  106 1   
   107   99  107 1   
   108   99  108 1   
   109  100  109 1   
   110  100  110 1   
   111  100  111 1   
   112  112  113 1   
   113  112  119 1   
   114  113  114 1   
   115  113  116 1   
   116  113  120 1   
   117  114  115 2   
   118  114  126 1   
   119  116  117 1   
   120  116  118 1   
   121  116  121 1   
   122  117  123 1   
   123  117  124 1   
   124  117  125 1   
   125  118  122 1   
   126  126  127 1   
   127  126  133 1   
   128  127  128 1   
   129  127  130 1   
   130  127  134 1   
   131  128  129 2   
   132  128  140 1   
   133  130  131 1   
   134  130  132 1   
   135  130  135 1   
   136  131  137 1   
   137  131  138 1   
   138  131  139 1   
   139  132  136 1   
   140  140  141 1   
   141  140  149 1   
   142  141  142 1   
   143  141  144 1   
   144  141  150 1   
   145  142  143 2   
   146  142  162 1   
   147  144  145 1   
   148  144  151 1   
   149  144  152 1   
   150  145  146 1   
   151  145  153 1   
   152  145  154 1   
   153  146  147 1   
   154  146  155 1   
   155  146  156 1   
   156  147  148 1   
   157  147  157 1   
   158  147  158 1   
   159  148  159 1   
   160  148  160 1   
   161  148  161 1   
   162  162  163 1   
   163  162  171 1   
   164  163  164 1   
   165  163  166 1   
   166  163  172 1   
   167  164  165 2   
   168  164  177 1   
   169  166  167 1   
   170  166  173 1   
   171  166  174 1   
   172  167  168 1   
   173  167  175 1   
   174  167  176 1   
   175  168  169 1   
   176  168  170 1   
   177  177  178 1   
   178  177  182 1   
   179  178  179 1   
   180  178  180 1   
   181  178  181 1   
   182  184  185 1   
   183  184  186 1   
@<TRIPOS>SUBSTRUCTURE
     1 MOL         1 TEMP              0 ****  ****    0 ROOT
