@<TRIPOS>MOLECULE
MOL
  201   193     1     0     0
SMALL
resp


@<TRIPOS>ATOM
      1 C1         -2.8510    4.5650    3.2720 c3        1 MOL     -0.503276
      2 C2         -4.0830    3.6320    3.2810 c         1 MOL      0.670482
      3 O1         -4.1410    2.6810    4.0450 o         1 MOL     -0.611879
      4 H1         -2.5210    4.7380    4.2960 hc        1 MOL      0.130144
      5 H2         -2.0450    4.0980    2.7050 hc        1 MOL      0.130144
      6 H3         -3.1180    5.5160    2.8110 hc        1 MOL      0.130144
      7 N1         -5.1420    3.9770    2.5470 n         1 MOL     -0.352734
      8 C3         -6.4520    3.2050    2.4250 c3        1 MOL     -0.122816
      9 C4         -6.2110    1.9020    1.6160 c         1 MOL      0.246464
     10 O2         -5.5020    1.8360    0.5980 o         1 MOL     -0.389581
     11 C5         -7.5700    4.1040    1.9100 c3        1 MOL     -0.160809
     12 C6         -7.3580    4.8680    0.5760 c         1 MOL      0.660724
     13 O3         -8.2280    5.7430    0.2730 o         1 MOL     -0.690023
     14 O4         -6.3330    4.6440   -0.1420 o         1 MOL     -0.690023
     15 H4         -4.9770    4.7370    1.9060 hn        1 MOL      0.264775
     16 H5         -6.6750    2.8940    3.4480 h1        1 MOL      0.122169
     17 H6         -7.7340    4.8400    2.6990 hc        1 MOL      0.085968
     18 H7         -8.4420    3.4850    1.6910 hc        1 MOL      0.085968
     19 N2         -6.8460    0.8020    2.1590 n         1 MOL     -0.317716
     20 C7         -6.8290   -0.5240    1.5340 c3        1 MOL      0.329806
     21 C8         -8.0420   -0.6870    0.6550 c         1 MOL      0.426651
     22 O5         -9.0300   -1.1870    1.1300 o         1 MOL     -0.568954
     23 C9         -6.5900   -1.6240    2.6760 c3        1 MOL     -0.304995
     24 C10        -6.2180   -2.9720    2.1140 c3        1 MOL      0.145380
     25 C11        -6.2200   -4.0070    3.2750 c3        1 MOL     -0.205020
     26 C12        -5.3250   -5.1800    2.7690 c3        1 MOL      0.047564
     27 N3         -6.0200   -6.0440    1.7970 n4        1 MOL     -0.480339
     28 H8         -7.4510    0.8360    2.9640 hn        1 MOL      0.271711
     29 H9         -6.0060   -0.6410    0.8240 h1        1 MOL     -0.152909
     30 H10        -7.4890   -1.6960    3.2870 hc        1 MOL      0.083911
     31 H11        -5.7210   -1.3780    3.2810 hc        1 MOL      0.083911
     32 H12        -5.2970   -3.0390    1.5280 hc        1 MOL      0.025388
     33 H13        -7.0150   -3.2310    1.4080 hc        1 MOL      0.025388
     34 H14        -7.1870   -4.4350    3.5360 hc        1 MOL      0.085790
     35 H15        -5.7700   -3.6870    4.2060 hc        1 MOL      0.085790
     36 H16        -4.9540   -5.7100    3.6560 hx        1 MOL      0.080034
     37 H17        -4.4030   -4.7520    2.3850 hx        1 MOL      0.080034
     38 H18        -5.3580   -6.4880    1.1750 hn        1 MOL      0.361597
     39 H19        -6.5840   -6.7770    2.2080 hn        1 MOL      0.361597
     40 H20        -6.6180   -5.4840    1.2130 hn        1 MOL      0.361597
     41 N4         -7.9530   -0.3640   -0.6800 n         1 MOL     -0.117393
     42 C13        -9.0560   -0.2860   -1.6260 c3        1 MOL      0.141265
     43 C14        -8.6470   -1.0810   -2.8790 c         1 MOL      0.368047
     44 O6         -8.3730   -0.4700   -3.9530 o         1 MOL     -0.469213
     45 C15        -9.5100    1.1670   -1.8070 c3        1 MOL     -0.396467
     46 C16        -8.6100    2.2520   -2.3450 c         1 MOL      0.794172
     47 O7         -8.9830    3.1290   -3.1330 o         1 MOL     -0.688874
     48 O8         -7.4100    2.1970   -1.9090 o         1 MOL     -0.688874
     49 H21        -7.1150    0.1270   -0.9610 hn        1 MOL      0.054571
     50 H22        -9.8690   -0.8910   -1.2100 h1        1 MOL      0.052854
     51 H23        -9.7970    1.5510   -0.8230 hc        1 MOL      0.109578
     52 H24       -10.3900    1.1340   -2.4480 hc        1 MOL      0.109578
     53 N5         -8.3920   -2.4030   -2.8850 n         1 MOL     -0.318777
     54 C17        -8.6840   -3.4370   -1.8700 c3        1 MOL      0.038110
     55 C18        -7.4280   -4.0640   -1.3580 c         1 MOL      0.830806
     56 O9         -7.5140   -5.1380   -0.7970 o         1 MOL     -0.695963
     57 H25        -8.1720   -2.8290   -3.7770 hn        1 MOL      0.270249
     58 H26        -9.3470   -4.2180   -2.2520 h1        1 MOL      0.027556
     59 H27        -9.3090   -2.9530   -1.1130 h1        1 MOL      0.027556
     60 N6         -6.2520   -3.4050   -1.6130 n         1 MOL     -0.798326
     61 C19        -4.9160   -4.1090   -1.6870 c3        1 MOL      0.358014
     62 C20        -3.7350   -3.0630   -1.3940 c         1 MOL      0.135446
     63 O10        -3.9380   -1.8740   -1.1260 o         1 MOL     -0.222006
     64 C21        -4.7740   -4.8220   -2.9900 c3        1 MOL     -0.315867
     65 C22        -4.8500   -3.8590   -4.2110 c         1 MOL      0.740511
     66 O11        -4.1790   -4.0960   -5.2390 o         1 MOL     -0.675829
     67 O12        -5.6720   -2.9170   -4.2410 o         1 MOL     -0.675829
     68 H28        -6.3110   -2.6680   -2.3020 hn        1 MOL      0.349084
     69 H29        -4.9320   -4.8850   -0.9220 h1        1 MOL     -0.046951
     70 H30        -5.5890   -5.5260   -3.1170 hc        1 MOL      0.071329
     71 H31        -3.8180   -5.3460   -3.0470 hc        1 MOL      0.071329
     72 N7         -2.4110   -3.5230   -1.5040 n         1 MOL     -0.418919
     73 C23        -1.2840   -2.5750   -1.3680 c3        1 MOL      0.141276
     74 C24        -0.7700   -2.3830    0.0060 c         1 MOL      0.351856
     75 O13         0.3880   -2.7280    0.2580 o         1 MOL     -0.518430
     76 H32        -2.2730   -4.5010   -1.6680 hn        1 MOL      0.332112
     77 H33        -1.5700   -1.5650   -1.6370 h1        1 MOL      0.039814
     78 H34        -0.4800   -2.8320   -2.0520 h1        1 MOL      0.039814
     79 N8         -1.6030   -1.9200    0.8600 n         1 MOL     -0.137151
     80 C25        -1.1990   -1.4010    2.1820 c3        1 MOL     -0.075762
     81 C26        -0.1470   -0.2640    2.1510 c         1 MOL      0.327248
     82 O14        -0.1680    0.5550    1.2020 o         1 MOL     -0.463869
     83 C27        -2.4380   -0.9050    2.8780 c3        1 MOL      0.025379
     84 C28        -3.2310    0.1570    2.0630 c3        1 MOL     -0.186909
     85 O15        -3.2710   -2.0230    3.1100 oh        1 MOL     -0.566188
     86 H35        -2.5590   -1.8510    0.5390 hn        1 MOL      0.152524
     87 H36        -0.7860   -2.2480    2.7370 h1        1 MOL      0.082150
     88 H37        -2.1460   -0.4840    3.8400 h1        1 MOL      0.125963
     89 H38        -3.4930   -1.9330    4.0380 ho        1 MOL      0.392072
     90 H39        -2.7260    1.1180    2.1080 hc        1 MOL      0.091090
     91 H40        -3.3220   -0.0360    0.9910 hc        1 MOL      0.091090
     92 H41        -4.2910    0.2290    2.3310 hc        1 MOL      0.091090
     93 N9          0.6400   -0.2140    3.2480 n         1 MOL     -0.125614
     94 C29         1.7010    0.7310    3.5170 c3        1 MOL     -0.156335
     95 C30         2.8370    0.6670    2.5620 c         1 MOL      0.493670
     96 O16         3.4610    1.6710    2.2890 o         1 MOL     -0.543001
     97 C31         2.1030    0.5550    4.9520 c3        1 MOL      0.308154
     98 C32         0.9840    0.2190    5.9870 c3        1 MOL     -0.283949
     99 C33         2.9240    1.7680    5.4610 c3        1 MOL     -0.372232
    100 C34        -0.2620    1.0800    6.0080 c3        1 MOL      0.079408
    101 H42         0.5480   -0.9420    3.9310 hn        1 MOL      0.207933
    102 H43         1.2770    1.7120    3.2950 h1        1 MOL      0.102991
    103 H44         2.7840   -0.2950    4.9560 hc        1 MOL     -0.036751
    104 H45         1.4610    0.4060    6.9500 hc        1 MOL      0.058872
    105 H46         0.6430   -0.7880    5.7680 hc        1 MOL      0.058872
    106 H47         3.4160    1.5810    6.4170 hc        1 MOL      0.106626
    107 H48         3.7300    1.8140    4.7270 hc        1 MOL      0.106626
    108 H49         2.2880    2.6490    5.5070 hc        1 MOL      0.106626
    109 H50        -0.7950    0.7820    6.9040 hc        1 MOL      0.000232
    110 H51        -0.1470    2.1650    6.0030 hc        1 MOL      0.000232
    111 H52        -0.9750    0.7970    5.2400 hc        1 MOL      0.000232
    112 N10         3.1300   -0.4870    2.0290 n         1 MOL     -0.299462
    113 C35         4.1560   -0.7450    0.9910 c3        1 MOL     -0.020506
    114 C36         5.1110   -1.8360    1.4310 c         1 MOL      0.709481
    115 O17         4.8360   -2.5820    2.3840 o         1 MOL     -0.574817
    116 C37         3.4110   -1.1090   -0.2800 c3        1 MOL      0.456795
    117 C38         2.7700    0.1170   -0.9410 c3        1 MOL     -0.281988
    118 O18         4.2350   -1.6540   -1.2600 oh        1 MOL     -0.674254
    119 H53         2.5810   -1.2330    2.4430 hn        1 MOL      0.171092
    120 H54         4.6710    0.1880    0.7730 h1        1 MOL      0.071236
    121 H55         2.6380   -1.8480   -0.0590 h1        1 MOL     -0.029367
    122 H56         3.7780   -1.5250   -2.0870 ho        1 MOL      0.401891
    123 H57         2.2380   -0.1680   -1.8420 hc        1 MOL      0.073648
    124 H58         2.0320    0.5310   -0.2510 hc        1 MOL      0.073648
    125 H59         3.4560    0.8770   -1.3100 hc        1 MOL      0.073648
    126 N11         6.2360   -1.9990    0.7320 n         1 MOL     -0.693949
    127 C39         7.3090   -2.9340    1.0240 c3        1 MOL      0.072206
    128 C40         8.7160   -2.3870    0.7250 c         1 MOL      0.622608
    129 O19         9.6410   -2.7570    1.4960 o         1 MOL     -0.593497
    130 C41         7.0610   -4.1680    0.1730 c3        1 MOL      0.190944
    131 C42         8.1740   -5.2900    0.1730 c3        1 MOL     -0.548184
    132 O20         6.8550   -3.8060   -1.1730 oh        1 MOL     -0.576308
    133 H60         6.1990   -1.4940   -0.1420 hn        1 MOL      0.344876
    134 H61         7.4350   -3.1740    2.0730 h1        1 MOL      0.118047
    135 H62         6.0750   -4.5340    0.4630 h1        1 MOL      0.082399
    136 H63         6.3290   -4.5390   -1.4960 ho        1 MOL      0.401046
    137 H64         8.1940   -5.6770    1.1870 hc        1 MOL      0.150424
    138 H65         7.8330   -6.0680   -0.5070 hc        1 MOL      0.150424
    139 H66         9.1250   -4.9020   -0.1870 hc        1 MOL      0.150424
    140 N12         9.0100   -1.5400   -0.2970 n         1 MOL     -0.398770
    141 C43        10.2090   -0.6470   -0.3160 c3        1 MOL     -0.053929
    142 C44         9.8940    0.7570   -0.9180 c         1 MOL      0.574722
    143 O21         9.0030    0.8180   -1.7190 o         1 MOL     -0.481653
    144 C45        11.2980   -1.3380   -1.2390 c3        1 MOL      0.025674
    145 C46        12.2490   -2.2900   -0.5700 c3        1 MOL     -0.032646
    146 C47        13.1440   -2.9060   -1.6140 c3        1 MOL      0.088863
    147 C48        14.2550   -3.7090   -0.9040 c3        1 MOL      0.067312
    148 N13        14.9910   -4.4780   -1.9310 n4        1 MOL     -0.278263
    149 H67         8.2330   -1.2860   -0.8910 hn        1 MOL      0.268613
    150 H68        10.5940   -0.6040    0.7040 h1        1 MOL      0.082185
    151 H69        11.8860   -0.4880   -1.5980 hc        1 MOL      0.013751
    152 H70        10.8510   -1.8680   -2.0770 hc        1 MOL      0.013751
    153 H71        11.5800   -3.0100   -0.1010 hc        1 MOL      0.032192
    154 H72        12.8190   -1.6880    0.1470 hc        1 MOL      0.032192
    155 H73        13.5840   -2.1920   -2.3090 hc        1 MOL      0.001488
    156 H74        12.6230   -3.6840   -2.1750 hc        1 MOL      0.001488
    157 H75        13.8180   -4.3630   -0.1580 hx        1 MOL      0.050814
    158 H76        14.7960   -2.9070   -0.4080 hx        1 MOL      0.050814
    159 H77        15.8410   -4.8610   -1.5470 hn        1 MOL      0.251903
    160 H78        14.4290   -5.2450   -2.2890 hn        1 MOL      0.251903
    161 H79        15.4150   -3.9110   -2.6490 hn        1 MOL      0.251903
    162 N14        10.6240    1.8340   -0.6150 n         1 MOL     -0.556428
    163 C49        10.3070    3.1340   -1.2490 c3        1 MOL      0.338110
    164 C50         8.9000    3.6340   -0.8630 c         1 MOL      0.278502
    165 O22         7.9850    3.7410   -1.6820 o         1 MOL     -0.483231
    166 C51        11.4320    4.1120   -0.9680 c3        1 MOL     -0.113355
    167 C52        12.6590    3.6560   -1.7740 c3        1 MOL     -0.028072
    168 C53        13.2790    4.8070   -2.5840 c         1 MOL      0.626358
    169 O23        13.9900    5.6310   -1.9730 o         1 MOL     -0.635076
    170 O24        12.8630    5.0070   -3.7480 o         1 MOL     -0.635076
    171 H80        11.3660    1.7580    0.0630 hn        1 MOL      0.300785
    172 H81        10.2050    3.0080   -2.3220 h1        1 MOL      0.045032
    173 H82        11.6430    4.1790    0.1020 hc        1 MOL      0.066185
    174 H83        11.0650    5.0890   -1.3070 hc        1 MOL      0.066185
    175 H84        12.4810    2.8210   -2.4520 hc        1 MOL     -0.046652
    176 H85        13.4420    3.3350   -1.0840 hc        1 MOL     -0.046652
    177 N15         8.6210    3.8920    0.4480 n         1 MOL     -0.340729
    178 C54         9.5190    3.7910    1.6870 c3        1 MOL     -0.096699
    179 H86         9.4760    4.7280    2.2440 h1        1 MOL      0.061170
    180 H87         9.1730    2.9760    2.3220 h1        1 MOL      0.061170
    181 H88        10.5470    3.6010    1.3780 h1        1 MOL      0.061170
    182 H89         7.7350    4.3440    0.5860 hn        1 MOL      0.297488
    183 Ca1        -5.1070    3.0500   -1.7700 Ca        1 MOL      1.746383
    184 O25        -4.5500    0.4280   -1.9400 oh        1 MOL     -0.837516
    185 H90        -4.2650   -0.3090   -1.4080 ho        1 MOL      0.410094
    186 H91        -4.7640    0.0430   -2.7960 ho        1 MOL      0.410094
    187 O26        -6.9020    4.9000   -2.9370 oh        1 MOL     -0.837516
    188 H92        -7.2350    5.4240   -2.2110 ho        1 MOL      0.410094
    189 H93        -7.5800    4.2410   -3.0930 ho        1 MOL      0.410094
    190 O27        -4.2090    5.5170   -2.4680 oh        1 MOL     -0.837516
    191 H94        -3.5900    6.1940   -2.1910 ho        1 MOL      0.410094
    192 H95        -4.9460    6.0040   -2.8430 ho        1 MOL      0.410094
    193 O28        -5.0420    2.9570   -4.5760 oh        1 MOL     -0.837516
    194 H96        -5.6200    2.4240   -5.1350 ho        1 MOL      0.410094
    195 H97        -4.8350    3.7250   -5.1190 ho        1 MOL      0.410094
    196 O29        -3.2670    4.0560   -0.0870 oh        1 MOL     -0.837516
    197 H98        -2.9570    4.9510   -0.2250 ho        1 MOL      0.410094
    198 H99        -2.5140    3.5030   -0.3290 ho        1 MOL      0.410094
    199 O30        -2.6790    3.0140   -2.7750 oh        1 MOL     -0.837516
    200 H100       -2.6220    3.7670   -3.3690 ho        1 MOL      0.410094
    201 H101       -1.7650    2.8470   -2.5310 ho        1 MOL      0.410094
@<TRIPOS>BOND
     1    1    2 1   
     2    1    4 1   
     3    1    5 1   
     4    1    6 1   
     5    2    3 2   
     6    2    7 1   
     7    7    8 1   
     8    7   15 1   
     9    8    9 1   
    10    8   11 1   
    11    8   16 1   
    12    9   10 2   
    13    9   19 1   
    14   11   12 1   
    15   11   17 1   
    16   11   18 1   
    17   12   13 1   
    18   12   14 1   
    19   19   20 1   
    20   19   28 1   
    21   20   21 1   
    22   20   23 1   
    23   20   29 1   
    24   21   22 2   
    25   21   41 1   
    26   23   24 1   
    27   23   30 1   
    28   23   31 1   
    29   24   25 1   
    30   24   32 1   
    31   24   33 1   
    32   25   26 1   
    33   25   34 1   
    34   25   35 1   
    35   26   27 1   
    36   26   36 1   
    37   26   37 1   
    38   27   38 1   
    39   27   39 1   
    40   27   40 1   
    41   41   42 1   
    42   41   49 1   
    43   42   43 1   
    44   42   45 1   
    45   42   50 1   
    46   43   44 2   
    47   43   53 1   
    48   45   46 1   
    49   45   51 1   
    50   45   52 1   
    51   46   47 1   
    52   46   48 1   
    53   53   54 1   
    54   53   57 1   
    55   54   55 1   
    56   54   58 1   
    57   54   59 1   
    58   55   56 2   
    59   55   60 1   
    60   60   61 1   
    61   60   68 1   
    62   61   62 1   
    63   61   64 1   
    64   61   69 1   
    65   62   63 2   
    66   62   72 1   
    67   64   65 1   
    68   64   70 1   
    69   64   71 1   
    70   65   66 1   
    71   65   67 1   
    72   72   73 1   
    73   72   76 1   
    74   73   74 1   
    75   73   77 1   
    76   73   78 1   
    77   74   75 2   
    78   74   79 1   
    79   79   80 1   
    80   79   86 1   
    81   80   81 1   
    82   80   83 1   
    83   80   87 1   
    84   81   82 2   
    85   81   93 1   
    86   83   84 1   
    87   83   85 1   
    88   83   88 1   
    89   84   90 1   
    90   84   91 1   
    91   84   92 1   
    92   85   89 1   
    93   93   94 1   
    94   93  101 1   
    95   94   95 1   
    96   94   97 1   
    97   94  102 1   
    98   95   96 2   
    99   95  112 1   
   100   97   98 1   
   101   97   99 1   
   102   97  103 1   
   103   98  100 1   
   104   98  104 1   
   105   98  105 1   
   106   99  106 1   
   107   99  107 1   
   108   99  108 1   
   109  100  109 1   
   110  100  110 1   
   111  100  111 1   
   112  112  113 1   
   113  112  119 1   
   114  113  114 1   
   115  113  116 1   
   116  113  120 1   
   117  114  115 2   
   118  114  126 1   
   119  116  117 1   
   120  116  118 1   
   121  116  121 1   
   122  117  123 1   
   123  117  124 1   
   124  117  125 1   
   125  118  122 1   
   126  126  127 1   
   127  126  133 1   
   128  127  128 1   
   129  127  130 1   
   130  127  134 1   
   131  128  129 2   
   132  128  140 1   
   133  130  131 1   
   134  130  132 1   
   135  130  135 1   
   136  131  137 1   
   137  131  138 1   
   138  131  139 1   
   139  132  136 1   
   140  140  141 1   
   141  140  149 1   
   142  141  142 1   
   143  141  144 1   
   144  141  150 1   
   145  142  143 2   
   146  142  162 1   
   147  144  145 1   
   148  144  151 1   
   149  144  152 1   
   150  145  146 1   
   151  145  153 1   
   152  145  154 1   
   153  146  147 1   
   154  146  155 1   
   155  146  156 1   
   156  147  148 1   
   157  147  157 1   
   158  147  158 1   
   159  148  159 1   
   160  148  160 1   
   161  148  161 1   
   162  162  163 1   
   163  162  171 1   
   164  163  164 1   
   165  163  166 1   
   166  163  172 1   
   167  164  165 2   
   168  164  177 1   
   169  166  167 1   
   170  166  173 1   
   171  166  174 1   
   172  167  168 1   
   173  167  175 1   
   174  167  176 1   
   175  168  169 1   
   176  168  170 1   
   177  177  178 1   
   178  177  182 1   
   179  178  179 1   
   180  178  180 1   
   181  178  181 1   
   182  184  185 1   
   183  184  186 1   
   184  187  188 1   
   185  187  189 1   
   186  190  191 1   
   187  190  192 1   
   188  193  194 1   
   189  193  195 1   
   190  196  197 1   
   191  196  198 1   
   192  199  200 1   
   193  199  201 1   
@<TRIPOS>SUBSTRUCTURE
     1 MOL         1 TEMP              0 ****  ****    0 ROOT
