@<TRIPOS>MOLECULE
MOL
  182   178     1     0     0
SMALL
resp


@<TRIPOS>ATOM
      1 C1          1.9840   -4.5470    5.9850 c3        1 MOL     -0.382821
      2 C2          1.8980   -4.3260    4.4810 c         1 MOL      0.838712
      3 O1          1.0240   -4.7680    3.8260 o         1 MOL     -0.627838
      4 H1          1.1080   -4.1130    6.4660 hc        1 MOL      0.097430
      5 H2          2.0200   -5.6160    6.1930 hc        1 MOL      0.097430
      6 H3          2.8840   -4.0700    6.3720 hc        1 MOL      0.097430
      7 N1          2.8690   -3.5720    3.9420 n         1 MOL     -0.652176
      8 C3          3.0690   -3.2190    2.5480 c3        1 MOL      0.162501
      9 C4          3.6150   -4.4070    1.6540 c         1 MOL      0.466598
     10 O2          4.2970   -5.3440    2.1300 o         1 MOL     -0.516561
     11 C5          3.8750   -1.9230    2.5270 c3        1 MOL      0.056693
     12 C6          3.5500   -1.0270    1.3670 c         1 MOL      0.579898
     13 O3          3.8710    0.1890    1.2710 o         1 MOL     -0.689983
     14 O4          3.0470   -1.5930    0.3690 o         1 MOL     -0.689983
     15 H4          3.5010   -3.3120    4.6760 hn        1 MOL      0.306531
     16 H5          2.0980   -2.9250    2.1480 h1        1 MOL     -0.091769
     17 H6          4.9150   -2.2600    2.5490 hc        1 MOL      0.010044
     18 H7          3.7500   -1.3080    3.4160 hc        1 MOL      0.010044
     19 N2          3.2410   -4.3980    0.3450 n         1 MOL     -0.376482
     20 C7          3.6170   -5.2580   -0.8210 c3        1 MOL      0.060416
     21 C8          4.7260   -4.6370   -1.7140 c         1 MOL      0.539640
     22 O5          5.3490   -5.4410   -2.4040 o         1 MOL     -0.541309
     23 C9          2.3500   -5.4980   -1.6700 c3        1 MOL     -0.079278
     24 C10         1.2200   -6.1630   -0.7760 c3        1 MOL     -0.032355
     25 C11         0.1600   -6.9980   -1.4960 c3        1 MOL     -0.059671
     26 C12        -0.9770   -7.3790   -0.5300 c3        1 MOL     -0.039056
     27 N3         -2.0240   -8.0200   -1.3270 n4        1 MOL     -0.088193
     28 H8          2.9180   -3.4720    0.1040 hn        1 MOL      0.264289
     29 H9          4.0590   -6.1770   -0.4240 h1        1 MOL      0.100867
     30 H10         2.5270   -6.2100   -2.4670 hc        1 MOL      0.033929
     31 H11         1.9180   -4.5500   -1.9900 hc        1 MOL      0.033929
     32 H12         0.7190   -5.3310   -0.2790 hc        1 MOL      0.048273
     33 H13         1.6980   -6.8130   -0.0380 hc        1 MOL      0.048273
     34 H14         0.5830   -7.9460   -1.8170 hc        1 MOL      0.044717
     35 H15        -0.2900   -6.5730   -2.3900 hc        1 MOL      0.044717
     36 H16        -1.3950   -6.4590   -0.1410 hx        1 MOL      0.098047
     37 H17        -0.6230   -8.0240    0.2740 hx        1 MOL      0.098047
     38 H18        -2.2290   -7.5770   -2.2120 hn        1 MOL      0.211136
     39 H19        -1.8140   -8.9850   -1.5740 hn        1 MOL      0.211136
     40 H20        -2.8620   -8.1240   -0.7720 hn        1 MOL      0.211136
     41 N4          5.0150   -3.3490   -1.5530 n         1 MOL     -0.464628
     42 C13         6.0940   -2.7140   -2.3180 c3        1 MOL      0.167336
     43 C14         6.9910   -1.7560   -1.5250 c         1 MOL      0.434490
     44 O6          8.0590   -1.4130   -1.9480 o         1 MOL     -0.511762
     45 C15         5.6300   -1.9510   -3.6040 c3        1 MOL     -0.361965
     46 C16         4.4820   -0.9700   -3.3100 c         1 MOL      0.851294
     47 O7          4.3260   -0.4290   -2.2040 o         1 MOL     -0.739646
     48 O8          3.6150   -0.7810   -4.1420 o         1 MOL     -0.739646
     49 H21         4.3400   -2.7480   -1.0870 hn        1 MOL      0.295319
     50 H22         6.7480   -3.5340   -2.6060 h1        1 MOL      0.084323
     51 H23         5.3010   -2.6710   -4.3520 hc        1 MOL      0.092104
     52 H24         6.4420   -1.3260   -3.9790 hc        1 MOL      0.092104
     53 N5          6.4260   -1.3680   -0.4120 n         1 MOL     -0.224816
     54 C17         7.1330   -0.5280    0.5660 c3        1 MOL     -0.225609
     55 C18         7.1730    1.0020    0.2580 c         1 MOL      0.484605
     56 O9          7.8870    1.7590    0.8520 o         1 MOL     -0.531628
     57 H25         5.4310   -1.5160   -0.3180 hn        1 MOL      0.031825
     58 H26         8.1370   -0.9080    0.7060 h1        1 MOL      0.134886
     59 H27         6.5960   -0.6750    1.4970 h1        1 MOL      0.134886
     60 N6          6.3800    1.2910   -0.7380 n         1 MOL     -0.133987
     61 C19         6.2600    2.6300   -1.3270 c3        1 MOL     -0.101434
     62 C20         4.9400    3.3030   -0.9270 c         1 MOL      0.656926
     63 O10         3.9370    2.6250   -0.7440 o         1 MOL     -0.614770
     64 C21         6.2900    2.4550   -2.8430 c3        1 MOL     -0.133456
     65 C22         7.5960    1.9170   -3.3230 c         1 MOL      0.676647
     66 N7          7.6600    1.5850   -4.5920 n         1 MOL     -0.762976
     67 O11         8.7080    2.0030   -2.7710 o         1 MOL     -0.524640
     68 H28         5.8830    0.5920   -1.2600 hn        1 MOL      0.285998
     69 H29         7.0500    3.2700   -0.9330 h1        1 MOL      0.046668
     70 H30         6.1890    3.4630   -3.2370 hc        1 MOL     -0.000388
     71 H31         5.4160    1.8530   -3.1120 hc        1 MOL     -0.000388
     72 H32         6.8790    1.6670   -5.2260 hn        1 MOL      0.351450
     73 H33         8.5700    1.3470   -4.9470 hn        1 MOL      0.351450
     74 N8          5.0300    4.6530   -0.8930 n         1 MOL     -0.397564
     75 C23         3.8350    5.5190   -0.6860 c3        1 MOL     -0.236817
     76 C24         3.0670    5.2680    0.6080 c         1 MOL      0.620830
     77 O12         3.6810    5.2100    1.7310 o         1 MOL     -0.511236
     78 H34         5.9170    5.0960   -1.0920 hn        1 MOL      0.344156
     79 H35         3.1450    5.2980   -1.4920 h1        1 MOL      0.112012
     80 H36         4.1890    6.5480   -0.6630 h1        1 MOL      0.112012
     81 N9          1.7770    5.1590    0.4420 n         1 MOL     -0.455122
     82 C25         0.8020    4.6180    1.4220 c3        1 MOL     -0.267303
     83 C26         1.0580    3.1820    1.7920 c         1 MOL      0.741451
     84 O13         1.8570    2.5270    1.1080 o         1 MOL     -0.447120
     85 C27        -0.6260    4.8320    0.9050 c3        1 MOL     -0.012451
     86 C28        -0.9670    6.2820    0.6100 ca        1 MOL     -0.023471
     87 C29        -0.5060    7.3620    1.4280 ca        1 MOL     -0.107498
     88 C30        -1.5680    6.6210   -0.5940 ca        1 MOL     -0.107498
     89 C31        -0.8010    8.6990    1.0830 ca        1 MOL     -0.273743
     90 C32        -1.8660    7.9640   -0.9320 ca        1 MOL     -0.273743
     91 C33        -1.5390    9.0080   -0.0730 ca        1 MOL      0.366012
     92 O14        -2.0640   10.3040   -0.2480 oh        1 MOL     -0.508853
     93 H37         1.4080    5.3580   -0.4720 hn        1 MOL      0.307586
     94 H38         0.9050    5.2570    2.3070 h1        1 MOL      0.153382
     95 H39        -1.3910    4.3860    1.5210 hc        1 MOL      0.053340
     96 H40        -0.8870    4.2440    0.0320 hc        1 MOL      0.053340
     97 H41        -0.0210    7.0380    2.3330 ha        1 MOL      0.116040
     98 H42        -1.7280    5.8410   -1.3280 ha        1 MOL      0.116040
     99 H43        -0.6130    9.4270    1.8600 ha        1 MOL      0.161236
    100 H44        -2.3330    8.1390   -1.8960 ha        1 MOL      0.161236
    101 H45        -1.9780   10.8530    0.5270 ho        1 MOL      0.379202
    102 N10         0.3230    2.6610    2.8180 n         1 MOL     -0.626305
    103 C34         0.1050    1.2330    3.1820 c3        1 MOL     -0.026960
    104 C35        -0.1210    0.2920    2.0170 c         1 MOL      0.283789
    105 O15         0.7800   -0.1100    1.2990 o         1 MOL     -0.464392
    106 C36         1.2960    0.7230    3.9880 c3        1 MOL      0.223608
    107 C37         1.1640   -0.7140    4.6470 c3        1 MOL     -0.059775
    108 C38         1.6620    1.6490    5.1310 c3        1 MOL     -0.457354
    109 C39        -0.0700   -0.9940    5.5260 c3        1 MOL     -0.273595
    110 H46        -0.0360    3.3070    3.5100 hn        1 MOL      0.328255
    111 H47        -0.6850    1.2210    3.9290 h1        1 MOL      0.107747
    112 H48         2.1910    0.6460    3.3640 hc        1 MOL      0.050805
    113 H49         1.9980   -0.9510    5.2980 hc        1 MOL      0.062375
    114 H50         1.1020   -1.4590    3.8570 hc        1 MOL      0.062375
    115 H51         0.8090    1.9590    5.7410 hc        1 MOL      0.118598
    116 H52         2.2970    1.1790    5.8940 hc        1 MOL      0.118598
    117 H53         2.1930    2.4880    4.6860 hc        1 MOL      0.118598
    118 H54         0.0880   -0.7080    6.5710 hc        1 MOL      0.066183
    119 H55        -0.9250   -0.4800    5.0860 hc        1 MOL      0.066183
    120 H56        -0.3650   -2.0410    5.5170 hc        1 MOL      0.066183
    121 N11        -1.3570   -0.1440    1.8770 n         1 MOL     -0.177770
    122 C40        -1.6140   -1.2720    1.0660 c3        1 MOL      0.062314
    123 C41        -3.0080   -1.2570    0.4290 c         1 MOL      0.498655
    124 O16        -3.4510   -2.2590   -0.2250 o         1 MOL     -0.554281
    125 C42        -1.3230   -2.5460    1.8400 c3        1 MOL      0.097222
    126 O17        -2.2930   -2.7960    2.8370 oh        1 MOL     -0.609561
    127 H57        -2.0310    0.3250    2.4570 hn        1 MOL      0.245308
    128 H58        -0.8200   -1.3020    0.3150 h1        1 MOL      0.043124
    129 H59        -0.3690   -2.4330    2.3540 h1        1 MOL      0.051844
    130 H60        -1.2220   -3.4390    1.2190 h1        1 MOL      0.051844
    131 H61        -2.0820   -3.6050    3.3160 ho        1 MOL      0.412763
    132 N12        -3.7800   -0.2070    0.5380 n         1 MOL     -0.479230
    133 C43        -5.2040   -0.2820    0.0620 c3        1 MOL      0.243300
    134 C44        -5.3510   -0.0280   -1.4540 c         1 MOL      0.615367
    135 O18        -4.4480    0.4670   -2.0940 o         1 MOL     -0.595343
    136 C45        -5.9610    0.8460    0.7630 c3        1 MOL     -0.311923
    137 H62        -3.5020    0.6710    0.9480 hn        1 MOL      0.243358
    138 H63        -5.6680   -1.2340    0.3270 h1        1 MOL      0.078781
    139 H64        -5.4910    0.9400    1.7480 hc        1 MOL      0.089178
    140 H65        -5.8550    1.7710    0.2110 hc        1 MOL      0.089178
    141 H66        -7.0220    0.6990    0.9380 hc        1 MOL      0.089178
    142 N13        -6.3980   -0.2720   -2.2310 n         1 MOL     -0.720913
    143 C46        -7.7200   -0.7580   -1.7830 c3        1 MOL      0.535811
    144 C47        -8.8750    0.1770   -2.1040 c         1 MOL      0.312291
    145 O19        -8.8310    0.9440   -3.0460 o         1 MOL     -0.500825
    146 C48        -7.8970   -2.2380   -2.2300 c3        1 MOL      0.017329
    147 H67        -6.1410   -0.1000   -3.1950 hn        1 MOL      0.373454
    148 H68        -7.7080   -0.8440   -0.6910 h1        1 MOL     -0.095837
    149 H69        -7.7440   -2.3040   -3.3140 hc        1 MOL     -0.008528
    150 H70        -7.0450   -2.7640   -1.8090 hc        1 MOL     -0.008528
    151 H71        -8.8210   -2.7140   -1.9350 hc        1 MOL     -0.008528
    152 N14       -10.0020    0.2030   -1.3570 n         1 MOL     -0.301001
    153 C49       -10.2520   -0.5240   -0.1780 c3        1 MOL     -0.340021
    154 C50        -9.8480    0.2300    1.0740 c         1 MOL      0.471640
    155 O20        -9.5170   -0.3260    2.1100 o         1 MOL     -0.520442
    156 C51       -11.7400   -0.9270   -0.1230 c3        1 MOL      0.177185
    157 C52       -12.1150   -2.1410   -0.9540 c3        1 MOL     -0.323065
    158 C53       -12.3410   -1.7410   -2.4220 c         1 MOL      0.738499
    159 O21       -13.2510   -0.9100   -2.7270 o         1 MOL     -0.665384
    160 O22       -11.5920   -2.1870   -3.3220 o         1 MOL     -0.665384
    161 H72       -10.6570    0.9320   -1.5880 hn        1 MOL      0.311492
    162 H73        -9.6970   -1.4600   -0.1600 h1        1 MOL      0.158851
    163 H74       -12.4380   -0.1100   -0.3370 hc        1 MOL      0.009242
    164 H75       -11.9940   -1.2250    0.8950 hc        1 MOL      0.009242
    165 H76       -13.0360   -2.5950   -0.5930 hc        1 MOL      0.065606
    166 H77       -11.2990   -2.8540   -1.0400 hc        1 MOL      0.065606
    167 N15        -9.8600    1.5510    0.9640 n         1 MOL     -0.283984
    168 C54        -9.4950    2.4890    2.0550 c3        1 MOL     -0.162919
    169 H78       -10.2780    2.4870    2.8130 h1        1 MOL      0.094601
    170 H79        -8.5530    2.1750    2.5040 h1        1 MOL      0.094601
    171 H80        -9.3870    3.4950    1.6490 h1        1 MOL      0.094601
    172 H81       -10.3080    1.8240    0.1040 hn        1 MOL      0.246224
    173 Ca1         2.3160    0.6250   -0.8090 Ca        1 MOL      1.764180
    174 O23         2.3470    1.4320   -3.2340 oh        1 MOL     -0.877580
    175 H82         2.4310    2.1160   -3.8950 ho        1 MOL      0.428168
    176 H83         2.8270    0.6850   -3.6060 ho        1 MOL      0.428168
    177 O24        -0.0000    1.7920   -1.3230 oh        1 MOL     -0.877580
    178 H84        -0.9430    1.7420   -1.1800 ho        1 MOL      0.428168
    179 H85         0.0820    2.2240   -2.1710 ho        1 MOL      0.428168
    180 O25         0.6410   -1.1530   -2.1150 oh        1 MOL     -0.877580
    181 H86         0.9320   -1.9400   -2.5760 ho        1 MOL      0.428168
    182 H87        -0.3030   -1.1160   -2.2680 ho        1 MOL      0.428168
@<TRIPOS>BOND
     1    1    2 1   
     2    1    4 1   
     3    1    5 1   
     4    1    6 1   
     5    2    3 2   
     6    2    7 1   
     7    7    8 1   
     8    7   15 1   
     9    8    9 1   
    10    8   11 1   
    11    8   16 1   
    12    9   10 2   
    13    9   19 1   
    14   11   12 1   
    15   11   17 1   
    16   11   18 1   
    17   12   13 1   
    18   12   14 1   
    19   19   20 1   
    20   19   28 1   
    21   20   21 1   
    22   20   23 1   
    23   20   29 1   
    24   21   22 2   
    25   21   41 1   
    26   23   24 1   
    27   23   30 1   
    28   23   31 1   
    29   24   25 1   
    30   24   32 1   
    31   24   33 1   
    32   25   26 1   
    33   25   34 1   
    34   25   35 1   
    35   26   27 1   
    36   26   36 1   
    37   26   37 1   
    38   27   38 1   
    39   27   39 1   
    40   27   40 1   
    41   41   42 1   
    42   41   49 1   
    43   42   43 1   
    44   42   45 1   
    45   42   50 1   
    46   43   44 2   
    47   43   53 1   
    48   45   46 1   
    49   45   51 1   
    50   45   52 1   
    51   46   47 1   
    52   46   48 1   
    53   53   54 1   
    54   53   57 1   
    55   54   55 1   
    56   54   58 1   
    57   54   59 1   
    58   55   56 2   
    59   55   60 1   
    60   60   61 1   
    61   60   68 1   
    62   61   62 1   
    63   61   64 1   
    64   61   69 1   
    65   62   63 2   
    66   62   74 1   
    67   64   65 1   
    68   64   70 1   
    69   64   71 1   
    70   65   66 1   
    71   65   67 2   
    72   66   72 1   
    73   66   73 1   
    74   74   75 1   
    75   74   78 1   
    76   75   76 1   
    77   75   79 1   
    78   75   80 1   
    79   76   77 2   
    80   76   81 1   
    81   81   82 1   
    82   81   93 1   
    83   82   83 1   
    84   82   85 1   
    85   82   94 1   
    86   83   84 2   
    87   83  102 1   
    88   85   86 1   
    89   85   95 1   
    90   85   96 1   
    91   86   87 ar  
    92   86   88 ar  
    93   87   89 ar  
    94   87   97 1   
    95   88   90 ar  
    96   88   98 1   
    97   89   91 ar  
    98   89   99 1   
    99   90   91 ar  
   100   90  100 1   
   101   91   92 1   
   102   92  101 1   
   103  102  103 1   
   104  102  110 1   
   105  103  104 1   
   106  103  106 1   
   107  103  111 1   
   108  104  105 2   
   109  104  121 1   
   110  106  107 1   
   111  106  108 1   
   112  106  112 1   
   113  107  109 1   
   114  107  113 1   
   115  107  114 1   
   116  108  115 1   
   117  108  116 1   
   118  108  117 1   
   119  109  118 1   
   120  109  119 1   
   121  109  120 1   
   122  121  122 1   
   123  121  127 1   
   124  122  123 1   
   125  122  125 1   
   126  122  128 1   
   127  123  124 2   
   128  123  132 1   
   129  125  126 1   
   130  125  129 1   
   131  125  130 1   
   132  126  131 1   
   133  132  133 1   
   134  132  137 1   
   135  133  134 1   
   136  133  136 1   
   137  133  138 1   
   138  134  135 2   
   139  134  142 1   
   140  136  139 1   
   141  136  140 1   
   142  136  141 1   
   143  142  143 1   
   144  142  147 1   
   145  143  144 1   
   146  143  146 1   
   147  143  148 1   
   148  144  145 2   
   149  144  152 1   
   150  146  149 1   
   151  146  150 1   
   152  146  151 1   
   153  152  153 1   
   154  152  161 1   
   155  153  154 1   
   156  153  156 1   
   157  153  162 1   
   158  154  155 2   
   159  154  167 1   
   160  156  157 1   
   161  156  163 1   
   162  156  164 1   
   163  157  158 1   
   164  157  165 1   
   165  157  166 1   
   166  158  159 1   
   167  158  160 1   
   168  167  168 1   
   169  167  172 1   
   170  168  169 1   
   171  168  170 1   
   172  168  171 1   
   173  174  175 1   
   174  174  176 1   
   175  177  178 1   
   176  177  179 1   
   177  180  181 1   
   178  180  182 1   
@<TRIPOS>SUBSTRUCTURE
     1 MOL         1 TEMP              0 ****  ****    0 ROOT
