@<TRIPOS>MOLECULE
MOL
  186   183     1     0     0
SMALL
resp


@<TRIPOS>ATOM
      1 C1        -12.1230    5.0040    3.9760 c3        1 MOL     -0.209074
      2 C2        -12.0800    4.0150    2.7480 c         1 MOL      0.466010
      3 O1        -12.6560    2.9150    2.8700 o         1 MOL     -0.557945
      4 H1        -11.1470    5.4730    4.0980 hc        1 MOL      0.054482
      5 H2        -12.8750    5.7730    3.7970 hc        1 MOL      0.054482
      6 H3        -12.3770    4.4510    4.8800 hc        1 MOL      0.054482
      7 N1        -11.4570    4.4000    1.6490 n         1 MOL      0.091544
      8 C3        -11.3350    3.6220    0.4190 c3        1 MOL     -0.923955
      9 C4        -10.3900    2.4150    0.6050 c         1 MOL      0.751818
     10 O2         -9.2600    2.5800    1.0660 o         1 MOL     -0.692506
     11 C5        -10.9580    4.4660   -0.7960 c3        1 MOL      0.431895
     12 C6         -9.9260    5.5570   -0.5950 c         1 MOL      0.505521
     13 O3         -9.2390    5.6580    0.4640 o         1 MOL     -0.664010
     14 O4         -9.8140    6.3550   -1.5750 o         1 MOL     -0.664010
     15 H4        -10.8250    5.1940    1.6490 hn        1 MOL      0.076996
     16 H5        -12.3040    3.1870    0.1730 h1        1 MOL      0.243756
     17 H6        -11.9430    4.8770   -1.0260 hc        1 MOL      0.004577
     18 H7        -10.6160    3.8420   -1.6140 hc        1 MOL      0.004577
     19 N2        -10.8290    1.2010    0.1300 n         1 MOL     -0.300986
     20 C7        -10.1400   -0.1280    0.2890 c3        1 MOL     -0.077627
     21 C8         -8.8350   -0.1410   -0.5330 c         1 MOL      0.627159
     22 O5         -8.6530   -0.9910   -1.4000 o         1 MOL     -0.547832
     23 C9        -11.1320   -1.2120   -0.0410 c3        1 MOL     -0.008867
     24 C10       -11.7890   -1.2230   -1.4150 c3        1 MOL     -0.041337
     25 C11       -12.6800   -2.4630   -1.5500 c3        1 MOL      0.038364
     26 C12       -12.0940   -3.8650   -1.7560 c3        1 MOL      0.018782
     27 N3        -13.0750   -4.7840   -2.2600 n4        1 MOL     -0.254375
     28 H8        -11.7340    1.1720   -0.3280 hn        1 MOL      0.211038
     29 H9         -9.7330   -0.3690    1.2630 h1        1 MOL      0.059970
     30 H10       -11.9530   -1.2350    0.6700 hc        1 MOL      0.025127
     31 H11       -10.6640   -2.1970   -0.0410 hc        1 MOL      0.025127
     32 H12       -11.0030   -1.2470   -2.1710 hc        1 MOL      0.062577
     33 H13       -12.4750   -0.3940   -1.5790 hc        1 MOL      0.062577
     34 H14       -13.3020   -2.2450   -2.4180 hc        1 MOL     -0.011469
     35 H15       -13.3340   -2.5530   -0.6850 hc        1 MOL     -0.011469
     36 H16       -11.6850   -4.1560   -0.7870 hx        1 MOL      0.096464
     37 H17       -11.3340   -3.7260   -2.5240 hx        1 MOL      0.096464
     38 H18       -13.9380   -4.8290   -1.7320 hn        1 MOL      0.272213
     39 H19       -13.3440   -4.4950   -3.1960 hn        1 MOL      0.272213
     40 H20       -12.7280   -5.7380   -2.2930 hn        1 MOL      0.272213
     41 N4         -7.7870    0.5750   -0.1260 n         1 MOL     -0.253862
     42 C13        -6.5220    0.6170   -0.9600 c3        1 MOL     -0.490470
     43 C14        -5.3600    1.1700   -0.0850 c         1 MOL      0.635280
     44 O6         -5.6650    1.9290    0.8060 o         1 MOL     -0.657213
     45 C15        -6.6050    1.4720   -2.2400 c3        1 MOL     -0.352489
     46 C16        -7.4210    2.7350   -2.0820 c         1 MOL      0.674965
     47 O7         -8.2040    3.0370   -2.9940 o         1 MOL     -0.643763
     48 O8         -7.4160    3.4630   -1.0430 o         1 MOL     -0.643763
     49 H21        -7.9270    1.3000    0.5630 hn        1 MOL      0.317832
     50 H22        -6.2330   -0.3640   -1.3410 h1        1 MOL      0.270371
     51 H23        -7.2020    0.7830   -2.8400 hc        1 MOL      0.171478
     52 H24        -5.6150    1.7310   -2.6020 hc        1 MOL      0.171478
     53 N5         -4.0730    0.9440   -0.4650 n         1 MOL     -0.486472
     54 C17        -3.6490   -0.2180   -1.3730 c3        1 MOL     -0.026447
     55 C18        -3.8100   -1.5790   -0.6490 c         1 MOL      0.718669
     56 O9         -4.0640   -1.5570    0.5260 o         1 MOL     -0.508893
     57 H25        -3.3380    1.5270   -0.0970 hn        1 MOL      0.301614
     58 H26        -2.6090   -0.1080   -1.6890 h1        1 MOL      0.082002
     59 H27        -4.3520   -0.1680   -2.2050 h1        1 MOL      0.082002
     60 N6         -3.5520   -2.6920   -1.3910 n         1 MOL     -0.798424
     61 C19        -3.7420   -4.0710   -0.9310 c3        1 MOL      0.425729
     62 C20        -2.5360   -4.9410   -1.1950 c         1 MOL      0.429529
     63 O10        -1.7540   -4.5200   -2.0200 o         1 MOL     -0.468398
     64 C21        -5.0150   -4.8060   -1.4050 c3        1 MOL     -0.163416
     65 C22        -5.2720   -4.7010   -2.9160 c         1 MOL      0.731904
     66 O11        -4.6540   -5.4910   -3.6220 o         1 MOL     -0.686716
     67 O12        -6.2050   -3.9450   -3.3150 o         1 MOL     -0.686716
     68 H28        -3.1200   -2.5330   -2.2950 hn        1 MOL      0.353273
     69 H29        -3.7900   -3.9850    0.1520 h1        1 MOL     -0.084316
     70 H30        -5.8820   -4.3920   -0.8820 hc        1 MOL     -0.016881
     71 H31        -4.9240   -5.8520   -1.1020 hc        1 MOL     -0.016881
     72 N7         -2.4690   -6.1220   -0.5980 n         1 MOL     -0.262462
     73 C23        -1.2260   -6.8760   -0.6150 c3        1 MOL     -0.341292
     74 C24         0.0140   -6.1960   -0.0330 c         1 MOL      0.596170
     75 O13         1.1210   -6.6010   -0.3890 o         1 MOL     -0.543716
     76 H32        -3.1050   -6.4320    0.1220 hn        1 MOL      0.254229
     77 H33        -0.9570   -7.0180   -1.6550 h1        1 MOL      0.157025
     78 H34        -1.3570   -7.8520   -0.1430 h1        1 MOL      0.157025
     79 N8         -0.1700   -5.1170    0.7580 n         1 MOL     -0.338900
     80 C25         0.8950   -4.4450    1.5340 c3        1 MOL      0.023802
     81 C26         1.1940   -3.0410    1.0860 c         1 MOL      0.590919
     82 O14         0.3240   -2.3960    0.4820 o         1 MOL     -0.534028
     83 C27         0.7110   -4.2870    3.0560 c3        1 MOL      0.342654
     84 C28        -0.4770   -3.4830    3.5680 c3        1 MOL     -0.298835
     85 O15         0.4930   -5.5220    3.6770 oh        1 MOL     -0.651417
     86 H35        -1.1240   -4.8280    0.9200 hn        1 MOL      0.242812
     87 H36         1.7820   -5.0690    1.5020 h1        1 MOL      0.056473
     88 H37         1.6210   -3.9360    3.5360 h1        1 MOL     -0.002880
     89 H38         0.6800   -5.3420    4.6020 ho        1 MOL      0.389462
     90 H39        -1.4250   -3.9730    3.3410 hc        1 MOL      0.074965
     91 H40        -0.4150   -3.1850    4.6140 hc        1 MOL      0.074965
     92 H41        -0.3570   -2.5770    2.9590 hc        1 MOL      0.074965
     93 N9          2.4130   -2.6240    1.3420 n         1 MOL     -0.471916
     94 C29         2.9900   -1.3280    0.8180 c3        1 MOL     -0.293024
     95 C30         4.4390   -1.5230    0.3310 c         1 MOL      0.622465
     96 O16         4.9670   -0.5810   -0.2280 o         1 MOL     -0.523374
     97 C31         2.8670   -0.1900    1.9100 c3        1 MOL      0.257198
     98 C32         3.6410   -0.4640    3.1650 c3        1 MOL      0.045286
     99 C33         1.3650    0.1560    2.1900 c3        1 MOL     -0.184680
    100 C34         3.6080    0.7520    4.0790 c3        1 MOL     -0.175722
    101 H42         3.0040   -3.2380    1.8870 hn        1 MOL      0.271836
    102 H43         2.3710   -1.0230   -0.0220 h1        1 MOL      0.207394
    103 H44         3.3080    0.6920    1.4540 hc        1 MOL     -0.011962
    104 H45         4.6670   -0.6010    2.8180 hc        1 MOL     -0.015501
    105 H46         3.2940   -1.3590    3.6750 hc        1 MOL     -0.015501
    106 H47         0.9110    0.3520    1.2230 hc        1 MOL      0.039289
    107 H48         0.8870   -0.6460    2.7410 hc        1 MOL      0.039289
    108 H49         1.4120    1.0480    2.8110 hc        1 MOL      0.039289
    109 H50         4.3840    0.8120    4.8400 hc        1 MOL      0.043787
    110 H51         3.7400    1.6910    3.5430 hc        1 MOL      0.043787
    111 H52         2.6230    0.7660    4.5430 hc        1 MOL      0.043787
    112 N10         5.0520   -2.6930    0.3100 n         1 MOL     -0.319396
    113 C35         6.4120   -3.0090   -0.1810 c3        1 MOL     -0.387631
    114 C36         7.3780   -2.9260    0.9400 c         1 MOL      0.751874
    115 O17         7.1800   -3.5430    1.9880 o         1 MOL     -0.568142
    116 C37         6.4600   -4.3170   -0.9530 c3        1 MOL      0.421957
    117 C38         7.7300   -4.7760   -1.6680 c3        1 MOL     -0.350270
    118 O18         6.0570   -5.3800   -0.1290 oh        1 MOL     -0.610198
    119 H53         4.6310   -3.4350    0.8540 hn        1 MOL      0.218156
    120 H54         6.6900   -2.2500   -0.9150 h1        1 MOL      0.167509
    121 H55         5.6260   -4.2980   -1.6500 h1        1 MOL      0.056721
    122 H56         6.0280   -5.0790    0.7820 ho        1 MOL      0.385378
    123 H57         8.0240   -4.2000   -2.5450 hc        1 MOL      0.092039
    124 H58         8.5860   -4.7260   -0.9850 hc        1 MOL      0.092039
    125 H59         7.6930   -5.8240   -1.9670 hc        1 MOL      0.092039
    126 N11         8.4490   -2.1110    0.7440 n         1 MOL     -0.534737
    127 C39         9.6860   -1.8900    1.5190 c3        1 MOL     -0.017603
    128 C40        10.1280   -0.4470    1.4830 c         1 MOL      0.685216
    129 O19        10.5540    0.0530    2.5190 o         1 MOL     -0.568955
    130 C41        10.7300   -2.8290    0.9040 c3        1 MOL      0.187632
    131 C42        12.1420   -2.6340    1.5070 c3        1 MOL     -0.358034
    132 O20        10.8630   -2.7380   -0.4700 oh        1 MOL     -0.625930
    133 H60         8.5670   -1.7380   -0.1930 hn        1 MOL      0.277752
    134 H61         9.5680   -2.1240    2.5740 h1        1 MOL      0.126676
    135 H62        10.4830   -3.8750    1.0630 h1        1 MOL      0.056770
    136 H63        11.0460   -3.6200   -0.8340 ho        1 MOL      0.427733
    137 H64        12.4500   -1.6360    1.2370 hc        1 MOL      0.095900
    138 H65        12.0830   -2.6440    2.5940 hc        1 MOL      0.095900
    139 H66        12.8680   -3.3820    1.1730 hc        1 MOL      0.095900
    140 N12        10.0570    0.3110    0.3370 n         1 MOL     -0.495524
    141 C43        10.3140    1.7520    0.1370 c3        1 MOL     -0.014962
    142 C44         9.1760    2.3500   -0.6640 c         1 MOL      0.459803
    143 O21         8.6610    1.6740   -1.5070 o         1 MOL     -0.492632
    144 C45        11.6620    1.9180   -0.6430 c3        1 MOL     -0.167015
    145 C46        12.9450    1.6670    0.2180 c3        1 MOL      0.075792
    146 C47        14.0050    2.4240   -0.4680 c3        1 MOL     -0.151705
    147 C48        14.3250    2.1920   -1.8960 c3        1 MOL      0.041214
    148 N13        15.0990    0.9160   -1.9950 n4        1 MOL     -0.291570
    149 H67         9.7090   -0.2040   -0.4530 hn        1 MOL      0.293931
    150 H68        10.3170    2.1360    1.1560 h1        1 MOL      0.109619
    151 H69        11.7020    2.9190   -1.0680 hc        1 MOL      0.065588
    152 H70        11.6000    1.2560   -1.4980 hc        1 MOL      0.065588
    153 H71        13.3290    0.6620    0.3680 hc        1 MOL      0.031570
    154 H72        12.7330    2.0680    1.2050 hc        1 MOL      0.031570
    155 H73        14.8580    2.3920    0.2190 hc        1 MOL      0.063966
    156 H74        13.6540    3.4500   -0.3700 hc        1 MOL      0.063966
    157 H75        14.9580    3.0170   -2.2130 hx        1 MOL      0.098685
    158 H76        13.4880    2.2610   -2.5880 hx        1 MOL      0.098685
    159 H77        14.5100    0.1060   -2.1470 hn        1 MOL      0.259084
    160 H78        15.6470    0.9370   -2.8440 hn        1 MOL      0.259084
    161 H79        15.6760    0.7620   -1.1800 hn        1 MOL      0.259084
    162 N14         8.8480    3.6240   -0.4760 n         1 MOL     -0.247349
    163 C49         7.9430    4.3510   -1.3100 c3        1 MOL      0.227320
    164 C50         6.4450    4.1780   -0.9240 c         1 MOL      0.417186
    165 O22         5.6770    3.6760   -1.6940 o         1 MOL     -0.503889
    166 C51         8.3600    5.8390   -1.3180 c3        1 MOL     -0.144980
    167 C52         9.6420    5.9520   -2.1180 c3        1 MOL     -0.308892
    168 C53        10.2070    7.3840   -2.0480 c         1 MOL      0.704086
    169 O23        11.2040    7.6940   -1.3320 o         1 MOL     -0.661393
    170 O24         9.6850    8.2760   -2.7610 o         1 MOL     -0.661393
    171 H80         9.3550    4.1090    0.2480 hn        1 MOL      0.198271
    172 H81         7.9760    3.8960   -2.3050 h1        1 MOL      0.034476
    173 H82         8.4780    6.2650   -0.3250 hc        1 MOL      0.092992
    174 H83         7.6310    6.5230   -1.7570 hc        1 MOL      0.092992
    175 H84         9.3850    5.6730   -3.1410 hc        1 MOL      0.063870
    176 H85        10.4330    5.2750   -1.8020 hc        1 MOL      0.063870
    177 N15         6.0200    4.4500    0.3360 n         1 MOL     -0.469554
    178 C54         6.7780    4.9820    1.5340 c3        1 MOL      0.009545
    179 H86         6.0790    5.4540    2.2250 h1        1 MOL      0.037447
    180 H87         7.2870    4.1600    2.0370 h1        1 MOL      0.037447
    181 H88         7.5130    5.7170    1.2040 h1        1 MOL      0.037447
    182 H89         5.0950    4.1690    0.6060 hn        1 MOL      0.316065
    183 Ca1        -7.0790    4.4700    1.2300 Ca        1 MOL      1.666731
    184 O25        -7.1250    2.7990    3.3220 oh        1 MOL     -0.825451
    185 H90        -6.8690    1.8930    3.5200 ho        1 MOL      0.426704
    186 H91        -7.6930    3.0460    4.0500 ho        1 MOL      0.426704
@<TRIPOS>BOND
     1    1    2 1   
     2    1    4 1   
     3    1    5 1   
     4    1    6 1   
     5    2    3 2   
     6    2    7 1   
     7    7    8 1   
     8    7   15 1   
     9    8    9 1   
    10    8   11 1   
    11    8   16 1   
    12    9   10 2   
    13    9   19 1   
    14   11   12 1   
    15   11   17 1   
    16   11   18 1   
    17   12   13 1   
    18   12   14 1   
    19   19   20 1   
    20   19   28 1   
    21   20   21 1   
    22   20   23 1   
    23   20   29 1   
    24   21   22 2   
    25   21   41 1   
    26   23   24 1   
    27   23   30 1   
    28   23   31 1   
    29   24   25 1   
    30   24   32 1   
    31   24   33 1   
    32   25   26 1   
    33   25   34 1   
    34   25   35 1   
    35   26   27 1   
    36   26   36 1   
    37   26   37 1   
    38   27   38 1   
    39   27   39 1   
    40   27   40 1   
    41   41   42 1   
    42   41   49 1   
    43   42   43 1   
    44   42   45 1   
    45   42   50 1   
    46   43   44 2   
    47   43   53 1   
    48   45   46 1   
    49   45   51 1   
    50   45   52 1   
    51   46   47 1   
    52   46   48 1   
    53   53   54 1   
    54   53   57 1   
    55   54   55 1   
    56   54   58 1   
    57   54   59 1   
    58   55   56 2   
    59   55   60 1   
    60   60   61 1   
    61   60   68 1   
    62   61   62 1   
    63   61   64 1   
    64   61   69 1   
    65   62   63 2   
    66   62   72 1   
    67   64   65 1   
    68   64   70 1   
    69   64   71 1   
    70   65   66 1   
    71   65   67 1   
    72   72   73 1   
    73   72   76 1   
    74   73   74 1   
    75   73   77 1   
    76   73   78 1   
    77   74   75 2   
    78   74   79 1   
    79   79   80 1   
    80   79   86 1   
    81   80   81 1   
    82   80   83 1   
    83   80   87 1   
    84   81   82 2   
    85   81   93 1   
    86   83   84 1   
    87   83   85 1   
    88   83   88 1   
    89   84   90 1   
    90   84   91 1   
    91   84   92 1   
    92   85   89 1   
    93   93   94 1   
    94   93  101 1   
    95   94   95 1   
    96   94   97 1   
    97   94  102 1   
    98   95   96 2   
    99   95  112 1   
   100   97   98 1   
   101   97   99 1   
   102   97  103 1   
   103   98  100 1   
   104   98  104 1   
   105   98  105 1   
   106   99  106 1   
   107   99  107 1   
   108   99  108 1   
   109  100  109 1   
   110  100  110 1   
   111  100  111 1   
   112  112  113 1   
   113  112  119 1   
   114  113  114 1   
   115  113  116 1   
   116  113  120 1   
   117  114  115 2   
   118  114  126 1   
   119  116  117 1   
   120  116  118 1   
   121  116  121 1   
   122  117  123 1   
   123  117  124 1   
   124  117  125 1   
   125  118  122 1   
   126  126  127 1   
   127  126  133 1   
   128  127  128 1   
   129  127  130 1   
   130  127  134 1   
   131  128  129 2   
   132  128  140 1   
   133  130  131 1   
   134  130  132 1   
   135  130  135 1   
   136  131  137 1   
   137  131  138 1   
   138  131  139 1   
   139  132  136 1   
   140  140  141 1   
   141  140  149 1   
   142  141  142 1   
   143  141  144 1   
   144  141  150 1   
   145  142  143 2   
   146  142  162 1   
   147  144  145 1   
   148  144  151 1   
   149  144  152 1   
   150  145  146 1   
   151  145  153 1   
   152  145  154 1   
   153  146  147 1   
   154  146  155 1   
   155  146  156 1   
   156  147  148 1   
   157  147  157 1   
   158  147  158 1   
   159  148  159 1   
   160  148  160 1   
   161  148  161 1   
   162  162  163 1   
   163  162  171 1   
   164  163  164 1   
   165  163  166 1   
   166  163  172 1   
   167  164  165 2   
   168  164  177 1   
   169  166  167 1   
   170  166  173 1   
   171  166  174 1   
   172  167  168 1   
   173  167  175 1   
   174  167  176 1   
   175  168  169 1   
   176  168  170 1   
   177  177  178 1   
   178  177  182 1   
   179  178  179 1   
   180  178  180 1   
   181  178  181 1   
   182  184  185 1   
   183  184  186 1   
@<TRIPOS>SUBSTRUCTURE
     1 MOL         1 TEMP              0 ****  ****    0 ROOT
