@<TRIPOS>MOLECULE
MOL
  181   177     1     0     0
SMALL
resp


@<TRIPOS>ATOM
      1 C1          9.2150    7.3700   -2.0610 c3        1 MOL     -0.375907
      2 C2          8.1930    6.4230   -1.4630 c         1 MOL      0.773668
      3 O1          7.1240    6.8500   -1.1260 o         1 MOL     -0.566057
      4 H1          8.9080    8.3990   -1.8760 hc        1 MOL      0.088289
      5 H2         10.1870    7.1930   -1.6000 hc        1 MOL      0.088289
      6 H3          9.2850    7.1990   -3.1350 hc        1 MOL      0.088289
      7 N1          8.5180    5.0990   -1.2540 n         1 MOL     -0.742046
      8 C3          9.5450    4.2330   -1.8650 c3        1 MOL      0.393335
      9 C4         10.5270    3.5180   -0.8500 c         1 MOL      0.382218
     10 O2         11.4210    2.8590   -1.3730 o         1 MOL     -0.537018
     11 C5          8.8630    3.2580   -2.7870 c3        1 MOL     -0.340394
     12 C6          7.6940    2.4780   -2.2240 c         1 MOL      0.830558
     13 O3          7.0090    1.7830   -2.9810 o         1 MOL     -0.761437
     14 O4          7.4830    2.4310   -0.9880 o         1 MOL     -0.761437
     15 H4          7.8360    4.5870   -0.7240 hn        1 MOL      0.344748
     16 H5         10.2330    4.8260   -2.4660 h1        1 MOL     -0.001951
     17 H6          9.5930    2.6890   -3.3560 hc        1 MOL      0.072887
     18 H7          8.4510    4.0680   -3.3890 hc        1 MOL      0.072887
     19 N2         10.2780    3.6080    0.4500 n         1 MOL     -0.600476
     20 C7         11.1170    2.9680    1.4540 c3        1 MOL      0.635251
     21 C8         10.4280    1.9270    2.2770 c         1 MOL      0.223045
     22 O5         10.5540    1.7940    3.4940 o         1 MOL     -0.525440
     23 C9         11.8570    4.0290    2.2870 c3        1 MOL     -0.445189
     24 H8          9.5690    4.2800    0.7320 hn        1 MOL      0.335528
     25 H9         11.8900    2.4060    0.9320 h1        1 MOL     -0.044087
     26 H10        12.7060    3.6380    2.8340 hc        1 MOL      0.099897
     27 H11        12.4100    4.7730    1.7380 hc        1 MOL      0.099897
     28 H12        11.1150    4.6080    2.8300 hc        1 MOL      0.099897
     29 N3          9.5100    1.1870    1.6760 n         1 MOL     -0.063742
     30 C10         8.7650   -0.0220    2.1100 c3        1 MOL     -0.015483
     31 C11         8.3880   -0.8820    0.8670 c         1 MOL      0.144511
     32 O6          8.3840   -0.3210   -0.2250 o         1 MOL     -0.407520
     33 C12         7.5590    0.2870    2.9900 c3        1 MOL     -0.238840
     34 C13         6.5780    1.2930    2.4070 c         1 MOL      0.706518
     35 O7          6.2420    2.2920    3.1270 o         1 MOL     -0.686989
     36 O8          6.0780    1.0970    1.3230 o         1 MOL     -0.686989
     37 H13         9.3230    1.3400    0.6890 hn        1 MOL      0.167068
     38 H14         9.4910   -0.6610    2.6120 h1        1 MOL      0.055874
     39 H15         7.9740    0.7200    3.8970 hc        1 MOL      0.074326
     40 H16         6.9320   -0.5610    3.2430 hc        1 MOL      0.074326
     41 N4          8.1310   -2.1750    1.0050 n         1 MOL     -0.033945
     42 C14         7.8290   -3.2300    0.0230 c3        1 MOL     -0.396390
     43 C15         6.4300   -3.2770   -0.6810 c         1 MOL      0.731615
     44 O9          5.7390   -2.2210   -0.7130 o         1 MOL     -0.649428
     45 H17         8.2540   -2.5340    1.9410 hn        1 MOL      0.224080
     46 H18         8.2520   -4.1440    0.4470 h1        1 MOL      0.142043
     47 H19         8.6250   -3.1460   -0.7170 h1        1 MOL      0.142043
     48 N5          6.0750   -4.4710   -1.1500 n         1 MOL     -0.492416
     49 C16         4.7880   -4.9060   -1.6950 c3        1 MOL      0.076980
     50 C17         3.7920   -5.0020   -0.4950 c         1 MOL      0.747114
     51 O10         4.1170   -5.7440    0.4620 o         1 MOL     -0.556035
     52 C18         4.8290   -6.2390   -2.4040 c3        1 MOL     -0.498365
     53 C19         5.8980   -6.2330   -3.5530 c         1 MOL      0.828410
     54 N6          5.4790   -6.3800   -4.8090 n         1 MOL     -0.857009
     55 O11         7.0460   -6.1420   -3.3160 o         1 MOL     -0.560875
     56 H20         6.7520   -5.2190   -1.1080 hn        1 MOL      0.292721
     57 H21         4.5460   -4.2210   -2.4980 h1        1 MOL      0.069642
     58 H22         3.8510   -6.5500   -2.7820 hc        1 MOL      0.144934
     59 H23         5.1460   -6.9990   -1.6920 hc        1 MOL      0.144934
     60 H24         4.4810   -6.4860   -4.9470 hn        1 MOL      0.378354
     61 H25         6.0630   -6.2790   -5.6260 hn        1 MOL      0.378354
     62 N7          2.6130   -4.4460   -0.6400 n         1 MOL     -0.650829
     63 C20         1.6030   -4.2520    0.3900 c3        1 MOL      0.226451
     64 C21         1.9050   -3.2930    1.4610 c         1 MOL      0.425316
     65 O12         2.9690   -2.7140    1.4950 o         1 MOL     -0.556421
     66 H26         2.3350   -3.9230   -1.4580 hn        1 MOL      0.321703
     67 H27         1.5870   -5.2070    0.9130 h1        1 MOL      0.057106
     68 H28         0.5540   -4.2440    0.0950 h1        1 MOL      0.057106
     69 N8          1.0510   -3.0330    2.4330 n         1 MOL     -0.241059
     70 C22        -0.2470   -3.7340    2.8240 c3        1 MOL     -0.261020
     71 C23        -1.5560   -3.2120    2.1990 c         1 MOL      0.564879
     72 O13        -2.6550   -3.7630    2.3820 o         1 MOL     -0.556039
     73 C24        -0.4560   -3.7690    4.3720 c3        1 MOL      0.405356
     74 C25         0.6490   -4.4290    5.2170 c3        1 MOL     -0.469005
     75 O14        -0.3970   -2.4380    4.8650 oh        1 MOL     -0.588764
     76 H29         1.4210   -2.4640    3.1760 hn        1 MOL      0.284211
     77 H30        -0.1400   -4.7300    2.3880 h1        1 MOL      0.106911
     78 H31        -1.3630   -4.3050    4.6580 h1        1 MOL      0.028777
     79 H32        -0.7560   -2.3770    5.7520 ho        1 MOL      0.394794
     80 H33         0.5380   -4.2620    6.2920 hc        1 MOL      0.115489
     81 H34         0.4960   -5.4980    5.0670 hc        1 MOL      0.115489
     82 H35         1.6440   -4.1370    4.8910 hc        1 MOL      0.115489
     83 N9         -1.4680   -2.1100    1.4340 n         1 MOL     -0.408315
     84 C26        -2.6940   -1.2760    1.1990 c3        1 MOL      0.136520
     85 C27        -3.0210   -1.2110   -0.3280 c         1 MOL      0.518501
     86 O15        -2.1110   -0.9330   -1.1280 o         1 MOL     -0.575843
     87 C28        -2.3960    0.0820    1.8480 c3        1 MOL      0.018557
     88 C29        -2.0900    0.1680    3.3140 c3        1 MOL      0.013684
     89 C30        -3.5050    1.0840    1.4220 c3        1 MOL     -0.322923
     90 C31        -3.2150   -0.3550    4.2490 c3        1 MOL     -0.086644
     91 H36        -0.5980   -1.6720    1.1680 hn        1 MOL      0.200442
     92 H37        -3.6000   -1.5620    1.7380 h1        1 MOL      0.130301
     93 H38        -1.4880    0.5210    1.4180 hc        1 MOL      0.008642
     94 H39        -1.8350    1.1710    3.6370 hc        1 MOL      0.020077
     95 H40        -1.1380   -0.3480    3.4410 hc        1 MOL      0.020077
     96 H41        -3.4110    1.4110    0.3900 hc        1 MOL      0.100283
     97 H42        -4.5220    0.7330    1.6150 hc        1 MOL      0.100283
     98 H43        -3.4160    2.0060    1.9980 hc        1 MOL      0.100283
     99 H44        -2.8160   -0.2530    5.2590 hc        1 MOL      0.012009
    100 H45        -4.0590    0.3330    4.1840 hc        1 MOL      0.012009
    101 H46        -3.4890   -1.4090    4.1200 hc        1 MOL      0.012009
    102 N10        -4.2970   -1.3620   -0.7530 n         1 MOL     -0.580027
    103 C32        -5.4280   -1.6940    0.0390 c3        1 MOL      0.202006
    104 C33        -6.6210   -1.0620   -0.5520 c         1 MOL      0.513836
    105 O16        -6.6330   -0.5390   -1.6870 o         1 MOL     -0.496582
    106 C34        -5.5160   -3.2060   -0.0380 c3        1 MOL     -0.266637
    107 C35        -5.6820   -3.8070   -1.4350 c         1 MOL      0.739561
    108 O17        -6.8390   -4.0880   -1.7790 o         1 MOL     -0.722036
    109 O18        -4.7320   -4.0250   -2.2380 o         1 MOL     -0.722036
    110 H47        -4.4140   -1.1340   -1.7300 hn        1 MOL      0.367395
    111 H48        -5.3660   -1.5060    1.1110 h1        1 MOL      0.042873
    112 H49        -6.3450   -3.4960    0.6110 hc        1 MOL      0.033517
    113 H50        -4.6600   -3.6730    0.4630 hc        1 MOL      0.033517
    114 N11        -7.7440   -1.0440    0.2480 n         1 MOL     -0.701536
    115 C36        -9.0770   -0.6000   -0.1920 c3        1 MOL      0.698514
    116 C37        -9.7460    0.3380    0.8400 c         1 MOL      0.037645
    117 O19        -9.5610    0.2290    2.0640 o         1 MOL     -0.449265
    118 C38        -9.9040   -1.8480   -0.3640 c3        1 MOL     -0.305042
    119 C39       -11.2410   -1.5680   -1.0200 ca        1 MOL      0.215553
    120 C40       -12.3580   -1.1350   -0.2500 ca        1 MOL     -0.234605
    121 C41       -11.3690   -1.6830   -2.4020 ca        1 MOL     -0.234605
    122 C42       -13.5600   -0.9300   -0.8880 ca        1 MOL     -0.102053
    123 C43       -12.5590   -1.3300   -3.0840 ca        1 MOL     -0.102053
    124 C44       -13.6770   -0.9350   -2.2900 ca        1 MOL     -0.138369
    125 H51        -7.6900   -1.5760    1.1040 hn        1 MOL      0.341164
    126 H52        -8.9990   -0.0550   -1.1410 h1        1 MOL     -0.059390
    127 H53        -9.8530   -2.3350    0.6120 hc        1 MOL      0.073102
    128 H54        -9.3200   -2.4900   -1.0250 hc        1 MOL      0.073102
    129 H55       -12.2100   -0.8960    0.8030 ha        1 MOL      0.162397
    130 H56       -10.5540   -2.0990   -2.9790 ha        1 MOL      0.162397
    131 H57       -14.3230   -0.5100   -0.2560 ha        1 MOL      0.105264
    132 H58       -12.5640   -1.5490   -4.1430 ha        1 MOL      0.105264
    133 H59       -14.6080   -0.7060   -2.7830 ha        1 MOL      0.093252
    134 N12       -10.5380    1.3430    0.3860 n         1 MOL     -0.059184
    135 C45       -10.6560    1.9250   -0.9430 c3        1 MOL     -0.161516
    136 C46        -9.3360    2.5530   -1.3510 c         1 MOL      0.730846
    137 O20        -9.1400    2.6950   -2.5460 o         1 MOL     -0.608202
    138 C47       -11.8590    2.9130   -0.8690 c3        1 MOL      0.031112
    139 C48       -11.8000    3.3820    0.6010 c3        1 MOL     -0.097131
    140 C49       -11.3470    2.0960    1.3480 c3        1 MOL     -0.089189
    141 H60       -10.9090    1.0760   -1.5830 h1        1 MOL      0.083172
    142 H61       -11.7900    3.7150   -1.6050 hc        1 MOL      0.022792
    143 H62       -12.7780    2.4110   -1.1790 hc        1 MOL      0.022792
    144 H63       -11.0270    4.1260    0.7540 hc        1 MOL      0.039097
    145 H64       -12.7610    3.7260    0.9690 hc        1 MOL      0.039097
    146 H65       -10.8170    2.2910    2.2740 h1        1 MOL      0.071443
    147 H66       -12.2850    1.6380    1.6410 h1        1 MOL      0.071443
    148 N13        -8.4860    2.8220   -0.3680 n         1 MOL     -0.536773
    149 C50        -7.1320    3.4390   -0.6670 c3        1 MOL      0.102541
    150 C51        -7.3130    4.8620   -1.2680 c         1 MOL      0.393015
    151 O21        -7.8840    5.7450   -0.5930 o         1 MOL     -0.541687
    152 C52        -6.2420    3.4070    0.6440 c3        1 MOL      0.274310
    153 C53        -6.7480    4.1390    1.8980 c3        1 MOL     -0.204548
    154 C54        -5.7320    3.8820    2.9920 c         1 MOL      0.774417
    155 O22        -5.8630    2.8690    3.7380 o         1 MOL     -0.744406
    156 O23        -4.8080    4.7050    3.2140 o         1 MOL     -0.744406
    157 H67        -8.7220    2.5480    0.5780 hn        1 MOL      0.420366
    158 H68        -6.6250    2.8970   -1.4550 h1        1 MOL      0.026218
    159 H69        -5.2330    3.7390    0.3970 hc        1 MOL     -0.084863
    160 H70        -6.1610    2.3380    0.8320 hc        1 MOL     -0.084863
    161 H71        -7.6410    3.5860    2.1820 hc        1 MOL     -0.002414
    162 H72        -6.8380    5.1920    1.6250 hc        1 MOL     -0.002414
    163 N14        -7.1000    5.1400   -2.5910 n         1 MOL     -0.274779
    164 C55        -6.6520    4.3030   -3.6700 c3        1 MOL     -0.111726
    165 H73        -6.7200    3.2570   -3.3690 h1        1 MOL      0.070333
    166 H74        -7.2800    4.4700   -4.5440 h1        1 MOL      0.070333
    167 H75        -5.6170    4.5440   -3.9120 h1        1 MOL      0.070333
    168 H76        -7.4510    6.0640   -2.8050 hn        1 MOL      0.236847
    169 Ca1         5.9270    0.2840   -1.1390 Ca        1 MOL      1.625423
    170 O24         4.4660   -0.7900   -3.0500 oh        1 MOL     -0.763457
    171 H77         4.6310   -1.1350   -3.9280 ho        1 MOL      0.390865
    172 H78         3.5380   -0.9210   -2.9100 ho        1 MOL      0.390865
    173 O25         3.5510   -0.3980    0.0420 oh        1 MOL     -0.763457
    174 H79         3.5100   -1.2910    0.3870 ho        1 MOL      0.390865
    175 H80         3.2820    0.1550    0.7780 ho        1 MOL      0.390865
    176 O26         7.8790   -0.9270   -2.9940 oh        1 MOL     -0.763457
    177 H81         8.6930   -0.4230   -2.9590 ho        1 MOL      0.390865
    178 H82         8.1330   -1.7530   -3.4280 ho        1 MOL      0.390865
    179 O27         4.0120    2.0340   -1.8900 oh        1 MOL     -0.763457
    180 H83         3.3980    2.4210   -1.2640 ho        1 MOL      0.390865
    181 H84         3.9250    2.5730   -2.6780 ho        1 MOL      0.390865
@<TRIPOS>BOND
     1    1    2 1   
     2    1    4 1   
     3    1    5 1   
     4    1    6 1   
     5    2    3 2   
     6    2    7 1   
     7    7    8 1   
     8    7   15 1   
     9    8    9 1   
    10    8   11 1   
    11    8   16 1   
    12    9   10 2   
    13    9   19 1   
    14   11   12 1   
    15   11   17 1   
    16   11   18 1   
    17   12   13 1   
    18   12   14 1   
    19   19   20 1   
    20   19   24 1   
    21   20   21 1   
    22   20   23 1   
    23   20   25 1   
    24   21   22 2   
    25   21   29 1   
    26   23   26 1   
    27   23   27 1   
    28   23   28 1   
    29   29   30 1   
    30   29   37 1   
    31   30   31 1   
    32   30   33 1   
    33   30   38 1   
    34   31   32 2   
    35   31   41 1   
    36   33   34 1   
    37   33   39 1   
    38   33   40 1   
    39   34   35 1   
    40   34   36 1   
    41   41   42 1   
    42   41   45 1   
    43   42   43 1   
    44   42   46 1   
    45   42   47 1   
    46   43   44 2   
    47   43   48 1   
    48   48   49 1   
    49   48   56 1   
    50   49   50 1   
    51   49   52 1   
    52   49   57 1   
    53   50   51 2   
    54   50   62 1   
    55   52   53 1   
    56   52   58 1   
    57   52   59 1   
    58   53   54 1   
    59   53   55 2   
    60   54   60 1   
    61   54   61 1   
    62   62   63 1   
    63   62   66 1   
    64   63   64 1   
    65   63   67 1   
    66   63   68 1   
    67   64   65 2   
    68   64   69 1   
    69   69   70 1   
    70   69   76 1   
    71   70   71 1   
    72   70   73 1   
    73   70   77 1   
    74   71   72 2   
    75   71   83 1   
    76   73   74 1   
    77   73   75 1   
    78   73   78 1   
    79   74   80 1   
    80   74   81 1   
    81   74   82 1   
    82   75   79 1   
    83   83   84 1   
    84   83   91 1   
    85   84   85 1   
    86   84   87 1   
    87   84   92 1   
    88   85   86 2   
    89   85  102 1   
    90   87   88 1   
    91   87   89 1   
    92   87   93 1   
    93   88   90 1   
    94   88   94 1   
    95   88   95 1   
    96   89   96 1   
    97   89   97 1   
    98   89   98 1   
    99   90   99 1   
   100   90  100 1   
   101   90  101 1   
   102  102  103 1   
   103  102  110 1   
   104  103  104 1   
   105  103  106 1   
   106  103  111 1   
   107  104  105 2   
   108  104  114 1   
   109  106  107 1   
   110  106  112 1   
   111  106  113 1   
   112  107  108 1   
   113  107  109 1   
   114  114  115 1   
   115  114  125 1   
   116  115  116 1   
   117  115  118 1   
   118  115  126 1   
   119  116  117 2   
   120  116  134 1   
   121  118  119 1   
   122  118  127 1   
   123  118  128 1   
   124  119  120 ar  
   125  119  121 ar  
   126  120  122 ar  
   127  120  129 1   
   128  121  123 ar  
   129  121  130 1   
   130  122  124 ar  
   131  122  131 1   
   132  123  124 ar  
   133  123  132 1   
   134  124  133 1   
   135  134  135 1   
   136  134  140 1   
   137  135  136 1   
   138  135  138 1   
   139  135  141 1   
   140  136  137 2   
   141  136  148 1   
   142  138  139 1   
   143  138  142 1   
   144  138  143 1   
   145  139  140 1   
   146  139  144 1   
   147  139  145 1   
   148  140  146 1   
   149  140  147 1   
   150  148  149 1   
   151  148  157 1   
   152  149  150 1   
   153  149  152 1   
   154  149  158 1   
   155  150  151 2   
   156  150  163 1   
   157  152  153 1   
   158  152  159 1   
   159  152  160 1   
   160  153  154 1   
   161  153  161 1   
   162  153  162 1   
   163  154  155 1   
   164  154  156 1   
   165  163  164 1   
   166  163  168 1   
   167  164  165 1   
   168  164  166 1   
   169  164  167 1   
   170  170  171 1   
   171  170  172 1   
   172  173  174 1   
   173  173  175 1   
   174  176  177 1   
   175  176  178 1   
   176  179  180 1   
   177  179  181 1   
@<TRIPOS>SUBSTRUCTURE
     1 MOL         1 TEMP              0 ****  ****    0 ROOT
