@<TRIPOS>MOLECULE
MOL
  186   183     1     0     0
SMALL
resp


@<TRIPOS>ATOM
      1 C1        -11.9420    3.9810    4.1490 c3        1 MOL     -0.127604
      2 C2        -11.7860    3.1470    2.8780 c         1 MOL      0.495748
      3 O1        -11.8930    1.9660    2.8760 o         1 MOL     -0.513342
      4 H1        -11.0570    4.6030    4.2850 hc        1 MOL      0.030796
      5 H2        -12.8240    4.6160    4.0620 hc        1 MOL      0.030796
      6 H3        -12.0560    3.3180    5.0070 hc        1 MOL      0.030796
      7 N1        -11.5920    3.8180    1.7260 n         1 MOL     -0.164563
      8 C3        -11.3390    3.2700    0.3680 c3        1 MOL     -0.602875
      9 C4        -10.1570    2.2150    0.4260 c         1 MOL      0.573436
     10 O2         -9.0750    2.5540    1.0020 o         1 MOL     -0.689258
     11 C5        -11.1680    4.3210   -0.7330 c3        1 MOL     -0.020558
     12 C6        -10.5570    5.6690   -0.3230 c         1 MOL      0.544344
     13 O3         -9.6540    5.6740    0.5050 o         1 MOL     -0.669186
     14 O4        -11.0140    6.7710   -0.7980 o         1 MOL     -0.669186
     15 H4        -11.4430    4.8180    1.8140 hn        1 MOL      0.267485
     16 H5        -12.1880    2.6480    0.0620 h1        1 MOL      0.201513
     17 H6        -12.1520    4.6020   -1.1200 hc        1 MOL      0.100083
     18 H7        -10.6570    3.9050   -1.6020 hc        1 MOL      0.100083
     19 N2        -10.3300    1.0190   -0.1620 n         1 MOL     -0.231835
     20 C7         -9.4380   -0.1880   -0.1310 c3        1 MOL     -0.136637
     21 C8         -7.9430    0.0520   -0.3060 c         1 MOL      0.472219
     22 O5         -7.0870   -0.6840    0.1710 o         1 MOL     -0.526839
     23 C9         -9.8830   -1.2100   -1.2170 c3        1 MOL     -0.159706
     24 C10        -9.4810   -2.6590   -0.8220 c3        1 MOL      0.408226
     25 C11       -10.4860   -3.6520   -1.4890 c3        1 MOL     -0.128288
     26 C12        -9.9680   -5.0850   -1.6710 c3        1 MOL     -0.113685
     27 N3         -9.0600   -5.2280   -2.8070 n4        1 MOL     -0.307456
     28 H8        -11.2620    0.9020   -0.5610 hn        1 MOL      0.227627
     29 H9         -9.5710   -0.7180    0.8040 h1        1 MOL      0.139998
     30 H10        -9.3530   -0.9470   -2.1360 hc        1 MOL      0.027379
     31 H11       -10.9650   -1.1020   -1.3540 hc        1 MOL      0.027379
     32 H12        -9.4950   -2.8110    0.2640 hc        1 MOL     -0.088657
     33 H13        -8.4600   -2.7930   -1.1700 hc        1 MOL     -0.088657
     34 H14       -10.7910   -3.2480   -2.4560 hc        1 MOL      0.050453
     35 H15       -11.3610   -3.7000   -0.8500 hc        1 MOL      0.050453
     36 H16       -10.8180   -5.7280   -1.8970 hx        1 MOL      0.121126
     37 H17        -9.5010   -5.5480   -0.8100 hx        1 MOL      0.121126
     38 H18        -8.8660   -6.1900   -3.0350 hn        1 MOL      0.303578
     39 H19        -9.4580   -4.7310   -3.5900 hn        1 MOL      0.303578
     40 H20        -8.1120   -4.8850   -2.6920 hn        1 MOL      0.303578
     41 N4         -7.5700    1.0840   -0.9300 n         1 MOL      0.288866
     42 C13        -6.1780    1.4200   -1.3110 c3        1 MOL     -0.793172
     43 C14        -5.3400    1.7550   -0.0600 c         1 MOL      0.582223
     44 O6         -5.8530    2.5060    0.8320 o         1 MOL     -0.660703
     45 C15        -6.0060    2.4470   -2.4310 c3        1 MOL     -0.190667
     46 C16        -7.1850    3.4890   -2.4710 c         1 MOL      0.505059
     47 O7         -7.5930    3.7940   -3.5710 o         1 MOL     -0.586587
     48 O8         -7.6100    4.0120   -1.4010 o         1 MOL     -0.586587
     49 H21        -8.2850    1.6460   -1.3580 hn        1 MOL      0.174057
     50 H22        -5.7470    0.4590   -1.5820 h1        1 MOL      0.242697
     51 H23        -6.0620    2.1380   -3.4750 hc        1 MOL      0.139661
     52 H24        -5.0760    2.9870   -2.2320 hc        1 MOL      0.139661
     53 N5         -4.0820    1.3610    0.0320 n         1 MOL     -0.302434
     54 C17        -3.2520    0.6320   -0.9000 c3        1 MOL     -0.211709
     55 C18        -3.4690   -0.9000   -0.7330 c         1 MOL      0.751361
     56 O9         -3.6440   -1.4000    0.3540 o         1 MOL     -0.526871
     57 H25        -3.7100    1.5340    0.9520 hn        1 MOL      0.277763
     58 H26        -2.1870    0.7190   -0.7210 h1        1 MOL      0.124595
     59 H27        -3.4490    0.9440   -1.9240 h1        1 MOL      0.124595
     60 N6         -3.5350   -1.6530   -1.8260 n         1 MOL     -0.707489
     61 C19        -4.1140   -3.0220   -1.7750 c3        1 MOL      0.354232
     62 C20        -3.1340   -4.0750   -1.6210 c         1 MOL      0.408434
     63 O10        -1.9950   -3.9220   -2.0480 o         1 MOL     -0.489800
     64 C21        -4.9930   -3.1520   -3.0510 c3        1 MOL     -0.195719
     65 C22        -5.8460   -4.4160   -3.0690 c         1 MOL      0.693050
     66 O11        -6.4210   -4.8760   -2.0210 o         1 MOL     -0.698044
     67 O12        -6.0540   -5.0460   -4.1020 o         1 MOL     -0.698044
     68 H28        -3.4110   -1.2830   -2.7530 hn        1 MOL      0.322888
     69 H29        -4.7530   -3.0480   -0.8910 h1        1 MOL     -0.058959
     70 H30        -4.4730   -3.0660   -4.0100 hc        1 MOL      0.056906
     71 H31        -5.7280   -2.3410   -3.1180 hc        1 MOL      0.056906
     72 N7         -3.5190   -5.2230   -1.0350 n         1 MOL     -0.198255
     73 C23        -2.6650   -6.3800   -0.7790 c3        1 MOL     -0.408875
     74 C24        -1.4230   -6.2390    0.1240 c         1 MOL      0.566796
     75 O13        -0.8780   -7.2820    0.6630 o         1 MOL     -0.568919
     76 H32        -4.4610   -5.4210   -0.7370 hn        1 MOL      0.232231
     77 H33        -2.3800   -6.7710   -1.7540 h1        1 MOL      0.181938
     78 H34        -3.3450   -7.0900   -0.3060 h1        1 MOL      0.181938
     79 N8         -1.0070   -5.0140    0.4660 n         1 MOL     -0.356643
     80 C25         0.0750   -4.5960    1.4040 c3        1 MOL      0.002003
     81 C26         0.8060   -3.3660    0.7670 c         1 MOL      0.631131
     82 O14         0.3910   -2.8670   -0.2710 o         1 MOL     -0.493421
     83 C27        -0.4800   -4.3900    2.7880 c3        1 MOL      0.487117
     84 C28        -1.7840   -3.6430    3.0050 c3        1 MOL     -0.187364
     85 O15        -0.5490   -5.6930    3.4710 oh        1 MOL     -0.644455
     86 H35        -1.3950   -4.2240   -0.0310 hn        1 MOL      0.234577
     87 H36         0.8380   -5.3710    1.4010 h1        1 MOL      0.044546
     88 H37         0.3070   -3.8390    3.3090 h1        1 MOL     -0.114915
     89 H38         0.2460   -6.2160    3.3280 ho        1 MOL      0.379562
     90 H39        -1.5990   -2.9820    3.8480 hc        1 MOL      0.050890
     91 H40        -1.8280   -3.0070    2.1110 hc        1 MOL      0.050890
     92 H41        -2.6840   -4.2480    3.0770 hc        1 MOL      0.050890
     93 N9          1.7880   -2.7790    1.5210 n         1 MOL     -0.594483
     94 C29         2.4140   -1.4580    1.1940 c3        1 MOL     -0.037973
     95 C30         3.7980   -1.7520    0.4630 c         1 MOL      0.613361
     96 O16         3.9350   -1.5000   -0.7490 o         1 MOL     -0.530132
     97 C31         2.5740   -0.6120    2.4300 c3        1 MOL      0.322522
     98 C32         1.3820   -0.8690    3.4450 c3        1 MOL      0.138317
     99 C33         2.5510    0.8570    1.9690 c3        1 MOL     -0.495058
    100 C34         1.4080    0.0790    4.6290 c3        1 MOL     -0.297074
    101 H42         2.1470   -3.2630    2.3340 hn        1 MOL      0.257561
    102 H43         1.7270   -1.0240    0.4710 h1        1 MOL      0.091165
    103 H44         3.4870   -0.8590    2.9650 hc        1 MOL     -0.061277
    104 H45         1.5430   -1.8600    3.8540 hc        1 MOL     -0.011126
    105 H46         0.4640   -0.7330    2.8790 hc        1 MOL     -0.011126
    106 H47         1.5410    1.1030    1.6340 hc        1 MOL      0.123621
    107 H48         2.8090    1.4740    2.8220 hc        1 MOL      0.123621
    108 H49         3.2010    0.8490    1.0910 hc        1 MOL      0.123621
    109 H50         0.7800    0.9610    4.5190 hc        1 MOL      0.070192
    110 H51         1.1020   -0.5270    5.4850 hc        1 MOL      0.070192
    111 H52         2.3940    0.4740    4.8990 hc        1 MOL      0.070192
    112 N10         4.8310   -2.2200    1.2000 n         1 MOL     -0.518775
    113 C35         6.1810   -2.6100    0.6690 c3        1 MOL     -0.085630
    114 C36         7.3010   -2.4070    1.6550 c         1 MOL      0.654793
    115 O17         7.1090   -2.4040    2.8590 o         1 MOL     -0.534181
    116 C37         6.1850   -4.1150    0.3290 c3        1 MOL      0.395712
    117 C38         5.0870   -4.5280   -0.6810 c3        1 MOL     -0.277814
    118 O18         7.3540   -4.4760   -0.3060 oh        1 MOL     -0.641373
    119 H53         4.6780   -2.4230    2.1780 hn        1 MOL      0.281250
    120 H54         6.3010   -2.1030   -0.2860 h1        1 MOL      0.093548
    121 H55         5.9620   -4.5620    1.2940 h1        1 MOL      0.020916
    122 H56         7.3710   -4.0920   -1.1860 ho        1 MOL      0.393678
    123 H57         4.0920   -4.5830   -0.2440 hc        1 MOL      0.075660
    124 H58         5.1070   -3.9250   -1.5900 hc        1 MOL      0.075660
    125 H59         5.3370   -5.5210   -1.0600 hc        1 MOL      0.075660
    126 N11         8.4960   -2.2070    1.1290 n         1 MOL     -0.515820
    127 C39         9.7360   -1.9680    1.9190 c3        1 MOL     -0.036042
    128 C40        10.3090   -0.5800    1.8210 c         1 MOL      0.643463
    129 O19        10.9990   -0.0640    2.6990 o         1 MOL     -0.545137
    130 C41        10.7940   -2.9610    1.4790 c3        1 MOL      0.401299
    131 C42        12.0690   -3.0190    2.2420 c3        1 MOL     -0.451771
    132 O20        11.2190   -2.6080    0.1910 oh        1 MOL     -0.657514
    133 H60         8.6490   -2.4480    0.1630 hn        1 MOL      0.280941
    134 H61         9.6000   -2.2310    2.9790 h1        1 MOL      0.092189
    135 H62        10.3330   -3.9420    1.4230 h1        1 MOL      0.013761
    136 H63        11.7280   -3.3170   -0.2080 ho        1 MOL      0.385456
    137 H64        12.0160   -3.3920    3.2630 hc        1 MOL      0.119307
    138 H65        12.6500   -3.7750    1.7300 hc        1 MOL      0.119307
    139 H66        12.5550   -2.0410    2.3200 hc        1 MOL      0.119307
    140 N12         9.9900    0.0380    0.6580 n         1 MOL     -0.415919
    141 C43        10.4600    1.3650    0.3120 c3        1 MOL      0.037155
    142 C44         9.5980    2.1870   -0.6660 c         1 MOL      0.488261
    143 O21         8.9350    1.6520   -1.5880 o         1 MOL     -0.504750
    144 C45        11.9300    1.3750   -0.1490 c3        1 MOL     -0.318468
    145 C46        12.0720    0.6040   -1.4780 c3        1 MOL      0.116855
    146 C47        13.5630    0.8650   -2.0280 c3        1 MOL      0.048871
    147 C48        13.5970    0.4700   -3.4550 c3        1 MOL     -0.216634
    148 N13        13.2090   -0.9580   -3.7330 n4        1 MOL     -0.194249
    149 H67         9.4370   -0.4160   -0.0590 hn        1 MOL      0.214580
    150 H68        10.3900    1.8870    1.2760 h1        1 MOL      0.083527
    151 H69        12.6080    0.8740    0.5400 hc        1 MOL      0.114735
    152 H70        12.2460    2.4090   -0.2840 hc        1 MOL      0.114735
    153 H71        11.4040    1.0080   -2.2460 hc        1 MOL      0.024207
    154 H72        11.9110   -0.4570   -1.3010 hc        1 MOL      0.024207
    155 H73        14.1510    0.1620   -1.4230 hc        1 MOL      0.027613
    156 H74        13.9200    1.8840   -1.9230 hc        1 MOL      0.027613
    157 H75        14.6650    0.6520   -3.6040 hx        1 MOL      0.146333
    158 H76        12.9420    1.1420   -4.0140 hx        1 MOL      0.146333
    159 H77        13.9150   -1.6040   -3.3860 hn        1 MOL      0.241060
    160 H78        12.2490   -1.2230   -3.5880 hn        1 MOL      0.241060
    161 H79        13.2560   -1.0940   -4.7340 hn        1 MOL      0.241060
    162 N14         9.7120    3.5080   -0.5320 n         1 MOL     -0.426914
    163 C49         8.8860    4.4700   -1.2510 c3        1 MOL      0.244253
    164 C50         7.3400    4.2770   -1.0930 c         1 MOL      0.425751
    165 O22         6.7150    3.9680   -2.0790 o         1 MOL     -0.547942
    166 C51         9.2960    5.9100   -0.9280 c3        1 MOL     -0.304011
    167 C52        10.6110    6.2980   -1.5180 c3        1 MOL     -0.215568
    168 C53        10.9780    7.7130   -1.0740 c         1 MOL      0.777142
    169 O23        11.8510    7.7200   -0.2330 o         1 MOL     -0.682990
    170 O24        10.5680    8.7490   -1.6040 o         1 MOL     -0.682990
    171 H80        10.2790    3.9540    0.1750 hn        1 MOL      0.280428
    172 H81         9.1130    4.2610   -2.2970 h1        1 MOL      0.040726
    173 H82         9.2100    6.1780    0.1210 hc        1 MOL      0.118447
    174 H83         8.4960    6.5260   -1.3320 hc        1 MOL      0.118447
    175 H84        10.6620    6.2870   -2.6060 hc        1 MOL      0.047241
    176 H85        11.4200    5.6200   -1.2500 hc        1 MOL      0.047241
    177 N15         6.6880    4.4300    0.0200 n         1 MOL     -0.336966
    178 C54         7.1300    4.9650    1.3390 c3        1 MOL     -0.098322
    179 H86         7.9760    5.6370    1.1930 h1        1 MOL      0.066106
    180 H87         6.3090    5.5110    1.8040 h1        1 MOL      0.066106
    181 H88         7.4300    4.1400    1.9850 h1        1 MOL      0.066106
    182 H89         5.6990    4.2180    0.0110 hn        1 MOL      0.281393
    183 Ca1        -7.1820    4.7610    0.9400 Ca        1 MOL      1.707237
    184 O25        -7.8240    3.9120    3.3100 oh        1 MOL     -0.918295
    185 H90        -8.4040    3.2060    3.0260 ho        1 MOL      0.471964
    186 H91        -7.8510    3.8770    4.2710 ho        1 MOL      0.471964
@<TRIPOS>BOND
     1    1    2 1   
     2    1    4 1   
     3    1    5 1   
     4    1    6 1   
     5    2    3 2   
     6    2    7 1   
     7    7    8 1   
     8    7   15 1   
     9    8    9 1   
    10    8   11 1   
    11    8   16 1   
    12    9   10 2   
    13    9   19 1   
    14   11   12 1   
    15   11   17 1   
    16   11   18 1   
    17   12   13 1   
    18   12   14 1   
    19   19   20 1   
    20   19   28 1   
    21   20   21 1   
    22   20   23 1   
    23   20   29 1   
    24   21   22 2   
    25   21   41 1   
    26   23   24 1   
    27   23   30 1   
    28   23   31 1   
    29   24   25 1   
    30   24   32 1   
    31   24   33 1   
    32   25   26 1   
    33   25   34 1   
    34   25   35 1   
    35   26   27 1   
    36   26   36 1   
    37   26   37 1   
    38   27   38 1   
    39   27   39 1   
    40   27   40 1   
    41   41   42 1   
    42   41   49 1   
    43   42   43 1   
    44   42   45 1   
    45   42   50 1   
    46   43   44 2   
    47   43   53 1   
    48   45   46 1   
    49   45   51 1   
    50   45   52 1   
    51   46   47 1   
    52   46   48 1   
    53   53   54 1   
    54   53   57 1   
    55   54   55 1   
    56   54   58 1   
    57   54   59 1   
    58   55   56 2   
    59   55   60 1   
    60   60   61 1   
    61   60   68 1   
    62   61   62 1   
    63   61   64 1   
    64   61   69 1   
    65   62   63 2   
    66   62   72 1   
    67   64   65 1   
    68   64   70 1   
    69   64   71 1   
    70   65   66 1   
    71   65   67 1   
    72   72   73 1   
    73   72   76 1   
    74   73   74 1   
    75   73   77 1   
    76   73   78 1   
    77   74   75 2   
    78   74   79 1   
    79   79   80 1   
    80   79   86 1   
    81   80   81 1   
    82   80   83 1   
    83   80   87 1   
    84   81   82 2   
    85   81   93 1   
    86   83   84 1   
    87   83   85 1   
    88   83   88 1   
    89   84   90 1   
    90   84   91 1   
    91   84   92 1   
    92   85   89 1   
    93   93   94 1   
    94   93  101 1   
    95   94   95 1   
    96   94   97 1   
    97   94  102 1   
    98   95   96 2   
    99   95  112 1   
   100   97   98 1   
   101   97   99 1   
   102   97  103 1   
   103   98  100 1   
   104   98  104 1   
   105   98  105 1   
   106   99  106 1   
   107   99  107 1   
   108   99  108 1   
   109  100  109 1   
   110  100  110 1   
   111  100  111 1   
   112  112  113 1   
   113  112  119 1   
   114  113  114 1   
   115  113  116 1   
   116  113  120 1   
   117  114  115 2   
   118  114  126 1   
   119  116  117 1   
   120  116  118 1   
   121  116  121 1   
   122  117  123 1   
   123  117  124 1   
   124  117  125 1   
   125  118  122 1   
   126  126  127 1   
   127  126  133 1   
   128  127  128 1   
   129  127  130 1   
   130  127  134 1   
   131  128  129 2   
   132  128  140 1   
   133  130  131 1   
   134  130  132 1   
   135  130  135 1   
   136  131  137 1   
   137  131  138 1   
   138  131  139 1   
   139  132  136 1   
   140  140  141 1   
   141  140  149 1   
   142  141  142 1   
   143  141  144 1   
   144  141  150 1   
   145  142  143 2   
   146  142  162 1   
   147  144  145 1   
   148  144  151 1   
   149  144  152 1   
   150  145  146 1   
   151  145  153 1   
   152  145  154 1   
   153  146  147 1   
   154  146  155 1   
   155  146  156 1   
   156  147  148 1   
   157  147  157 1   
   158  147  158 1   
   159  148  159 1   
   160  148  160 1   
   161  148  161 1   
   162  162  163 1   
   163  162  171 1   
   164  163  164 1   
   165  163  166 1   
   166  163  172 1   
   167  164  165 2   
   168  164  177 1   
   169  166  167 1   
   170  166  173 1   
   171  166  174 1   
   172  167  168 1   
   173  167  175 1   
   174  167  176 1   
   175  168  169 1   
   176  168  170 1   
   177  177  178 1   
   178  177  182 1   
   179  178  179 1   
   180  178  180 1   
   181  178  181 1   
   182  184  185 1   
   183  184  186 1   
@<TRIPOS>SUBSTRUCTURE
     1 MOL         1 TEMP              0 ****  ****    0 ROOT
