@<TRIPOS>MOLECULE
MOL
  181   177     1     0     0
SMALL
resp


@<TRIPOS>ATOM
      1 C1         11.1340    6.8830   -1.5050 c3        1 MOL     -0.385774
      2 C2         10.1040    5.9160   -0.8230 c         1 MOL      0.717537
      3 O1          8.9780    6.2180   -0.6110 o         1 MOL     -0.580984
      4 H1         12.0960    6.3820   -1.5980 hc        1 MOL      0.091286
      5 H2         10.7720    7.1610   -2.4940 hc        1 MOL      0.091286
      6 H3         11.2500    7.7800   -0.8950 hc        1 MOL      0.091286
      7 N1         10.4520    4.7100   -0.3930 n         1 MOL     -0.454371
      8 C3         11.8000    4.0870   -0.4530 c3        1 MOL     -0.089458
      9 C4         12.1910    3.2380    0.8660 c         1 MOL      0.549190
     10 O2         13.3690    2.9490    1.0310 o         1 MOL     -0.578229
     11 C5         11.8760    3.1160   -1.6500 c3        1 MOL     -0.058854
     12 C6         10.7020    2.1590   -1.5530 c         1 MOL      0.791267
     13 O3          9.8520    2.1050   -2.4920 o         1 MOL     -0.795842
     14 O4         10.6400    1.3330   -0.6300 o         1 MOL     -0.795842
     15 H4          9.7700    4.1360    0.0880 hn        1 MOL      0.289045
     16 H5         12.5920    4.8200   -0.6000 h1        1 MOL      0.071022
     17 H6         12.7560    2.4840   -1.6920 hc        1 MOL      0.010318
     18 H7         11.7790    3.6490   -2.5920 hc        1 MOL      0.010318
     19 N2         11.2990    2.9870    1.7960 n         1 MOL     -0.447030
     20 C7         11.6340    2.3940    3.0990 c3        1 MOL      0.410578
     21 C8         10.5510    1.3840    3.4850 c         1 MOL      0.308371
     22 O5         10.0360    1.4500    4.5760 o         1 MOL     -0.494171
     23 C9         11.9260    3.5460    4.1310 c3        1 MOL     -0.437236
     24 H8         10.3420    3.2690    1.6650 hn        1 MOL      0.275833
     25 H9         12.5920    1.8730    3.0670 h1        1 MOL      0.000726
     26 H10        12.3850    3.1840    5.0560 hc        1 MOL      0.107052
     27 H11        12.6490    4.2620    3.7530 hc        1 MOL      0.107052
     28 H12        10.9370    3.9460    4.3740 hc        1 MOL      0.107052
     29 N3          9.9800    0.7190    2.4840 n         1 MOL     -0.298651
     30 C10         8.6730    0.1040    2.5400 c3        1 MOL     -0.073985
     31 C11         8.5100   -1.0700    1.5190 c         1 MOL      0.559737
     32 O6          9.2200   -1.1260    0.4970 o         1 MOL     -0.516206
     33 C12         7.6750    1.2150    2.2310 c3        1 MOL     -0.245323
     34 C13         7.8850    2.0380    0.9220 c         1 MOL      0.737848
     35 O7          8.3170    3.2140    1.0220 o         1 MOL     -0.659319
     36 O8          7.6670    1.5240   -0.1740 o         1 MOL     -0.659319
     37 H13        10.5210    0.8120    1.6320 hn        1 MOL      0.231197
     38 H14         8.6340   -0.2470    3.5710 h1        1 MOL      0.085583
     39 H15         7.5780    1.9030    3.0840 hc        1 MOL      0.082311
     40 H16         6.6470    0.8320    2.2000 hc        1 MOL      0.082311
     41 N4          7.4570   -1.9140    1.7610 n         1 MOL     -0.430784
     42 C14         6.9780   -3.0010    0.9380 c3        1 MOL     -0.128151
     43 C15         6.1370   -2.5650   -0.2020 c         1 MOL      0.614975
     44 O9          6.4010   -1.4270   -0.6890 o         1 MOL     -0.590310
     45 H17         6.8220   -1.5700    2.4640 hn        1 MOL      0.306897
     46 H18         6.3510   -3.6990    1.5050 h1        1 MOL      0.071535
     47 H19         7.8840   -3.5130    0.6180 h1        1 MOL      0.071535
     48 N5          5.2250   -3.3640   -0.6910 n         1 MOL     -0.505362
     49 C16         4.4700   -3.1470   -1.9300 c3        1 MOL     -0.004659
     50 C17         2.9650   -2.9770   -1.8220 c         1 MOL      0.545596
     51 O10         2.2890   -2.7020   -2.7810 o         1 MOL     -0.528040
     52 C18         4.8110   -4.4360   -2.7280 c3        1 MOL     -0.112315
     53 C19         6.2610   -4.7200   -2.9640 c         1 MOL      0.569655
     54 N6          6.7330   -5.7170   -2.3010 n         1 MOL     -0.577467
     55 O11         6.9500   -4.0900   -3.7150 o         1 MOL     -0.586792
     56 H20         5.0720   -4.2670   -0.2610 hn        1 MOL      0.269497
     57 H21         4.7920   -2.3140   -2.5660 h1        1 MOL      0.161312
     58 H22         4.4070   -4.1160   -3.6850 hc        1 MOL      0.050549
     59 H23         4.2660   -5.3320   -2.4260 hc        1 MOL      0.050549
     60 H24         6.1370   -6.1240   -1.5920 hn        1 MOL      0.267730
     61 H25         7.7140   -5.8010   -2.4840 hn        1 MOL      0.267730
     62 N7          2.3880   -3.3190   -0.6540 n         1 MOL     -0.418706
     63 C20         0.8730   -3.4350   -0.5560 c3        1 MOL      0.004981
     64 C21         0.5410   -3.3520    0.9540 c         1 MOL      0.467638
     65 O12         1.1980   -2.7280    1.8040 o         1 MOL     -0.534877
     66 H26         3.0380   -3.5180    0.1000 hn        1 MOL      0.256695
     67 H27         0.5210   -4.3480   -1.0290 h1        1 MOL      0.117048
     68 H28         0.3330   -2.6530   -1.0890 h1        1 MOL      0.117048
     69 N8         -0.5950   -3.9240    1.4160 n         1 MOL     -0.306396
     70 C22        -1.6450   -4.7080    0.6520 c3        1 MOL     -0.165892
     71 C23        -3.0750   -4.2140    1.0440 c         1 MOL      0.667428
     72 O13        -4.0100   -4.7920    0.5140 o         1 MOL     -0.560867
     73 C24        -1.5140   -6.2150    0.9830 c3        1 MOL      0.275041
     74 C25        -0.3670   -6.9280    0.2360 c3        1 MOL     -0.153414
     75 O14        -1.3370   -6.3050    2.4100 oh        1 MOL     -0.613609
     76 H29        -0.5560   -3.9780    2.4230 hn        1 MOL      0.286370
     77 H30        -1.6290   -4.5320   -0.4210 h1        1 MOL      0.142876
     78 H31        -2.4350   -6.7000    0.6440 h1        1 MOL      0.033211
     79 H32        -1.5140   -7.2320    2.6040 ho        1 MOL      0.394680
     80 H33        -0.3270   -7.9760    0.5520 hc        1 MOL      0.021912
     81 H34        -0.6070   -6.9500   -0.8200 hc        1 MOL      0.021912
     82 H35         0.6110   -6.4630    0.3020 hc        1 MOL      0.021912
     83 N9         -3.2320   -3.1470    1.8660 n         1 MOL     -0.573418
     84 C26        -4.5480   -2.5050    2.0080 c3        1 MOL      0.194013
     85 C27        -4.6410   -1.4140    0.9560 c         1 MOL      0.443386
     86 O15        -3.6740   -0.6670    0.7850 o         1 MOL     -0.560171
     87 C28        -4.7300   -2.0430    3.4500 c3        1 MOL      0.084315
     88 C29        -4.7800   -3.2620    4.3960 c3        1 MOL      0.060642
     89 C30        -5.9830   -1.1890    3.7420 c3        1 MOL     -0.024084
     90 C31        -4.9330   -2.9440    5.9090 c3        1 MOL     -0.122530
     91 H36        -2.4290   -2.5800    2.0890 hn        1 MOL      0.272331
     92 H37        -5.3270   -3.2670    1.9470 h1        1 MOL      0.020850
     93 H38        -3.8560   -1.4460    3.7430 hc        1 MOL      0.042190
     94 H39        -3.9100   -3.9000    4.2110 hc        1 MOL     -0.029288
     95 H40        -5.4500   -4.0440    4.0430 hc        1 MOL     -0.029288
     96 H41        -6.0260   -0.3770    3.0170 hc        1 MOL     -0.003266
     97 H42        -6.8200   -1.8880    3.7800 hc        1 MOL     -0.003266
     98 H43        -5.9080   -0.6720    4.7030 hc        1 MOL     -0.003266
     99 H44        -4.6600   -3.8320    6.4800 hc        1 MOL      0.023533
    100 H45        -4.2390   -2.1910    6.2780 hc        1 MOL      0.023533
    101 H46        -5.9950   -2.8290    6.1490 hc        1 MOL      0.023533
    102 N10        -5.7200   -1.0910    0.2610 n         1 MOL     -0.248916
    103 C32        -6.9870   -1.7930    0.1610 c3        1 MOL      0.090425
    104 C33        -8.0910   -0.8230   -0.3570 c         1 MOL      0.417702
    105 O16        -7.7710   -0.1050   -1.2610 o         1 MOL     -0.437644
    106 C34        -6.8000   -3.0350   -0.7190 c3        1 MOL     -0.204281
    107 C35        -6.4200   -2.6850   -2.1310 c         1 MOL      0.752109
    108 O17        -5.2590   -2.6070   -2.4980 o         1 MOL     -0.704749
    109 O18        -7.3220   -2.6120   -2.9910 o         1 MOL     -0.704749
    110 H47        -5.7000   -0.2730   -0.3400 hn        1 MOL      0.250501
    111 H48        -7.1850   -2.0660    1.1960 h1        1 MOL     -0.018755
    112 H49        -7.7100   -3.6320   -0.7030 hc        1 MOL      0.026882
    113 H50        -6.0180   -3.6650   -0.3040 hc        1 MOL      0.026882
    114 N11        -9.2920   -0.8830    0.2210 n         1 MOL     -0.553820
    115 C36       -10.4030   -0.0590   -0.2720 c3        1 MOL      0.506949
    116 C37       -10.9890    0.8690    0.8000 c         1 MOL      0.125470
    117 O19       -11.1020    0.4170    1.9070 o         1 MOL     -0.464685
    118 C38       -11.5880   -0.9860   -0.7580 c3        1 MOL     -0.128144
    119 C39       -12.6530   -0.1820   -1.5370 ca        1 MOL      0.051638
    120 C40       -13.8240    0.2120   -0.8510 ca        1 MOL     -0.134727
    121 C41       -12.4770    0.2460   -2.8600 ca        1 MOL     -0.134727
    122 C42       -14.7930    1.0390   -1.4330 ca        1 MOL     -0.150873
    123 C43       -13.4590    1.0810   -3.4360 ca        1 MOL     -0.150873
    124 C44       -14.6020    1.5240   -2.7040 ca        1 MOL     -0.109924
    125 H51        -9.5050   -1.5980    0.9000 hn        1 MOL      0.314512
    126 H52       -10.0410    0.4680   -1.1590 h1        1 MOL      0.015341
    127 H53       -12.0390   -1.2940    0.1840 hc        1 MOL      0.025585
    128 H54       -11.3150   -1.8700   -1.3220 hc        1 MOL      0.025585
    129 H55       -14.0750   -0.1270    0.1450 ha        1 MOL      0.134641
    130 H56       -11.6550   -0.1150   -3.4700 ha        1 MOL      0.134641
    131 H57       -15.6230    1.3870   -0.8390 ha        1 MOL      0.111511
    132 H58       -13.4420    1.3150   -4.4910 ha        1 MOL      0.111511
    133 H59       -15.2630    2.2530   -3.1450 ha        1 MOL      0.101824
    134 N12       -11.3150    2.1580    0.4880 n         1 MOL      0.094771
    135 C45       -11.0670    2.8460   -0.7410 c3        1 MOL      0.031979
    136 C46        -9.6150    3.1000   -1.0560 c         1 MOL      0.289764
    137 O20        -9.1810    2.9680   -2.2550 o         1 MOL     -0.539276
    138 C47       -11.8910    4.1300   -0.6500 c3        1 MOL     -0.085082
    139 C48       -12.0850    4.4240    0.7820 c3        1 MOL      0.022118
    140 C49       -12.1870    3.0260    1.3520 c3        1 MOL     -0.271860
    141 H60       -11.3820    2.2030   -1.5630 h1        1 MOL      0.057051
    142 H61       -11.4460    5.0330   -1.0650 hc        1 MOL      0.039273
    143 H62       -12.8240    3.9690   -1.1900 hc        1 MOL      0.039273
    144 H63       -11.1510    4.8320    1.1710 hc        1 MOL      0.038740
    145 H64       -12.8920    5.0940    1.0680 hc        1 MOL      0.038740
    146 H65       -11.9220    2.9230    2.4040 h1        1 MOL      0.094584
    147 H66       -13.1670    2.5760    1.2240 h1        1 MOL      0.094584
    148 N13        -8.8060    3.4200   -0.0580 n         1 MOL     -0.164512
    149 C50        -7.4190    3.8300   -0.3200 c3        1 MOL      0.172460
    150 C51        -7.4140    5.2500   -0.9310 c         1 MOL      0.344053
    151 O21        -7.7450    6.2100   -0.2190 o         1 MOL     -0.561184
    152 C52        -6.6290    3.8050    1.0300 c3        1 MOL     -0.051109
    153 C53        -6.2100    2.4330    1.5460 c3        1 MOL     -0.216369
    154 C54        -5.8220    2.4540    3.0380 c         1 MOL      0.791699
    155 O22        -4.6360    2.3440    3.4520 o         1 MOL     -0.709452
    156 O23        -6.7130    2.5910    3.9490 o         1 MOL     -0.709452
    157 H67        -9.2370    3.4200    0.8600 hn        1 MOL      0.215168
    158 H68        -6.8780    3.0850   -0.9050 h1        1 MOL      0.076727
    159 H69        -7.2760    4.3010    1.7580 hc        1 MOL      0.023653
    160 H70        -5.7690    4.4840    1.0490 hc        1 MOL      0.023653
    161 H71        -5.2900    2.1210    1.0430 hc        1 MOL      0.021558
    162 H72        -6.9910    1.7010    1.3590 hc        1 MOL      0.021558
    163 N14        -7.0780    5.4700   -2.2070 n         1 MOL     -0.261297
    164 C55        -6.6540    4.5750   -3.2650 c3        1 MOL     -0.115059
    165 H73        -5.5660    4.5060   -3.2660 h1        1 MOL      0.072450
    166 H74        -7.0810    3.5860   -3.0990 h1        1 MOL      0.072450
    167 H75        -6.9940    4.9620   -4.2260 h1        1 MOL      0.072450
    168 H76        -7.2500    6.4150   -2.4960 hn        1 MOL      0.243269
    169 Ca1         8.5600   -0.1570   -1.8380 Ca        1 MOL      1.820300
    170 O24        11.0450   -0.7270   -2.8560 oh        1 MOL     -0.883715
    171 H77        11.6840   -0.0600   -3.0740 ho        1 MOL      0.424289
    172 H78        11.5130   -1.5610   -2.9710 ho        1 MOL      0.424289
    173 O25         8.7190   -2.8680   -1.7400 oh        1 MOL     -0.883715
    174 H79         9.0800   -3.6750   -1.3880 ho        1 MOL      0.424289
    175 H80         8.2800   -3.1230   -2.5470 ho        1 MOL      0.424289
    176 O26         6.1700    0.7870   -2.9020 oh        1 MOL     -0.883715
    177 H81         5.7250    1.4600   -2.3960 ho        1 MOL      0.424289
    178 H82         5.5720    0.6040   -3.6240 ho        1 MOL      0.424289
    179 O27         8.2440   -1.1160   -4.3210 oh        1 MOL     -0.883715
    180 H83         8.7850   -1.8130   -4.6960 ho        1 MOL      0.424289
    181 H84         7.6300   -0.8850   -5.0200 ho        1 MOL      0.424289
@<TRIPOS>BOND
     1    1    2 1   
     2    1    4 1   
     3    1    5 1   
     4    1    6 1   
     5    2    3 2   
     6    2    7 1   
     7    7    8 1   
     8    7   15 1   
     9    8    9 1   
    10    8   11 1   
    11    8   16 1   
    12    9   10 2   
    13    9   19 1   
    14   11   12 1   
    15   11   17 1   
    16   11   18 1   
    17   12   13 1   
    18   12   14 1   
    19   19   20 1   
    20   19   24 1   
    21   20   21 1   
    22   20   23 1   
    23   20   25 1   
    24   21   22 2   
    25   21   29 1   
    26   23   26 1   
    27   23   27 1   
    28   23   28 1   
    29   29   30 1   
    30   29   37 1   
    31   30   31 1   
    32   30   33 1   
    33   30   38 1   
    34   31   32 2   
    35   31   41 1   
    36   33   34 1   
    37   33   39 1   
    38   33   40 1   
    39   34   35 1   
    40   34   36 1   
    41   41   42 1   
    42   41   45 1   
    43   42   43 1   
    44   42   46 1   
    45   42   47 1   
    46   43   44 2   
    47   43   48 1   
    48   48   49 1   
    49   48   56 1   
    50   49   50 1   
    51   49   52 1   
    52   49   57 1   
    53   50   51 2   
    54   50   62 1   
    55   52   53 1   
    56   52   58 1   
    57   52   59 1   
    58   53   54 1   
    59   53   55 2   
    60   54   60 1   
    61   54   61 1   
    62   62   63 1   
    63   62   66 1   
    64   63   64 1   
    65   63   67 1   
    66   63   68 1   
    67   64   65 2   
    68   64   69 1   
    69   69   70 1   
    70   69   76 1   
    71   70   71 1   
    72   70   73 1   
    73   70   77 1   
    74   71   72 2   
    75   71   83 1   
    76   73   74 1   
    77   73   75 1   
    78   73   78 1   
    79   74   80 1   
    80   74   81 1   
    81   74   82 1   
    82   75   79 1   
    83   83   84 1   
    84   83   91 1   
    85   84   85 1   
    86   84   87 1   
    87   84   92 1   
    88   85   86 2   
    89   85  102 1   
    90   87   88 1   
    91   87   89 1   
    92   87   93 1   
    93   88   90 1   
    94   88   94 1   
    95   88   95 1   
    96   89   96 1   
    97   89   97 1   
    98   89   98 1   
    99   90   99 1   
   100   90  100 1   
   101   90  101 1   
   102  102  103 1   
   103  102  110 1   
   104  103  104 1   
   105  103  106 1   
   106  103  111 1   
   107  104  105 2   
   108  104  114 1   
   109  106  107 1   
   110  106  112 1   
   111  106  113 1   
   112  107  108 1   
   113  107  109 1   
   114  114  115 1   
   115  114  125 1   
   116  115  116 1   
   117  115  118 1   
   118  115  126 1   
   119  116  117 2   
   120  116  134 1   
   121  118  119 1   
   122  118  127 1   
   123  118  128 1   
   124  119  120 ar  
   125  119  121 ar  
   126  120  122 ar  
   127  120  129 1   
   128  121  123 ar  
   129  121  130 1   
   130  122  124 ar  
   131  122  131 1   
   132  123  124 ar  
   133  123  132 1   
   134  124  133 1   
   135  134  135 1   
   136  134  140 1   
   137  135  136 1   
   138  135  138 1   
   139  135  141 1   
   140  136  137 2   
   141  136  148 1   
   142  138  139 1   
   143  138  142 1   
   144  138  143 1   
   145  139  140 1   
   146  139  144 1   
   147  139  145 1   
   148  140  146 1   
   149  140  147 1   
   150  148  149 1   
   151  148  157 1   
   152  149  150 1   
   153  149  152 1   
   154  149  158 1   
   155  150  151 2   
   156  150  163 1   
   157  152  153 1   
   158  152  159 1   
   159  152  160 1   
   160  153  154 1   
   161  153  161 1   
   162  153  162 1   
   163  154  155 1   
   164  154  156 1   
   165  163  164 1   
   166  163  168 1   
   167  164  165 1   
   168  164  166 1   
   169  164  167 1   
   170  170  171 1   
   171  170  172 1   
   172  173  174 1   
   173  173  175 1   
   174  176  177 1   
   175  176  178 1   
   176  179  180 1   
   177  179  181 1   
@<TRIPOS>SUBSTRUCTURE
     1 MOL         1 TEMP              0 ****  ****    0 ROOT
