@<TRIPOS>MOLECULE
MOL
  181   177     1     0     0
SMALL
resp


@<TRIPOS>ATOM
      1 C1          6.0350    1.5080    6.0510 c3        1 MOL     -0.343072
      2 C2          5.4150    0.8740    4.8040 c         1 MOL      0.700561
      3 O1          4.2090    0.7090    4.7500 o         1 MOL     -0.575744
      4 H1          5.2550    2.0000    6.6330 hc        1 MOL      0.089214
      5 H2          6.5070    0.7350    6.6570 hc        1 MOL      0.089214
      6 H3          6.7820    2.2430    5.7520 hc        1 MOL      0.089214
      7 N1          6.1140    0.5260    3.7090 n         1 MOL     -0.385534
      8 C3          7.5420    0.6160    3.5770 c3        1 MOL     -0.045797
      9 C4          7.9730   -0.7940    2.9210 c         1 MOL      0.411760
     10 O2          7.3080   -1.7620    3.1440 o         1 MOL     -0.410970
     11 C5          7.9990    1.8990    2.8190 c3        1 MOL     -0.424456
     12 C6          7.2750    1.8420    1.4670 c         1 MOL      0.859274
     13 O3          6.4780    2.7760    1.1990 o         1 MOL     -0.774942
     14 O4          7.4400    0.9400    0.5980 o         1 MOL     -0.774942
     15 H4          5.6110    0.2220    2.8890 hn        1 MOL      0.227789
     16 H5          8.0660    0.6270    4.5360 h1        1 MOL      0.093201
     17 H6          9.0520    1.8780    2.5380 hc        1 MOL      0.115107
     18 H7          7.7120    2.7970    3.3690 hc        1 MOL      0.115107
     19 N2          9.1050   -0.8180    2.2070 n         1 MOL     -0.447189
     20 C7          9.6610   -1.9660    1.5020 c3        1 MOL      0.380001
     21 C8          8.6610   -2.7160    0.6560 c         1 MOL      0.289156
     22 O5          8.8100   -3.8950    0.4790 o         1 MOL     -0.524042
     23 C9         10.6790   -2.7410    2.4070 c3        1 MOL     -0.339453
     24 H8          9.5710    0.0760    2.1950 hn        1 MOL      0.259954
     25 H9         10.2850   -1.5110    0.7250 h1        1 MOL      0.001724
     26 H10        11.2490   -2.1130    3.0910 hc        1 MOL      0.084979
     27 H11        10.1500   -3.4900    2.9820 hc        1 MOL      0.084979
     28 H12        11.4350   -3.1930    1.7580 hc        1 MOL      0.084979
     29 N3          7.5630   -2.1110    0.1590 n         1 MOL     -0.080745
     30 C10         6.6080   -2.7550   -0.7030 c3        1 MOL      0.099348
     31 C11         6.3550   -1.9710   -2.0070 c         1 MOL      0.314969
     32 O6          6.1220   -0.7760   -2.0260 o         1 MOL     -0.467684
     33 C12         5.2720   -3.0570    0.1040 c3        1 MOL     -0.000754
     34 C13         4.6690   -1.9360    0.8870 c         1 MOL      0.562784
     35 O7          3.8250   -2.1940    1.8040 o         1 MOL     -0.628516
     36 O8          4.9180   -0.7610    0.5240 o         1 MOL     -0.628516
     37 H13         7.5370   -1.1090    0.3020 hn        1 MOL      0.082840
     38 H14         7.0660   -3.6720   -1.0550 h1        1 MOL      0.008544
     39 H15         5.4410   -3.8770    0.7910 hc        1 MOL      0.003027
     40 H16         4.4640   -3.3490   -0.5660 hc        1 MOL      0.003027
     41 N4          6.1260   -2.7060   -3.0830 n         1 MOL     -0.345391
     42 C14         5.4430   -2.2670   -4.2740 c3        1 MOL     -0.220147
     43 C15         3.9960   -1.9280   -4.1570 c         1 MOL      0.533147
     44 O9          3.3150   -1.4370   -5.0740 o         1 MOL     -0.554794
     45 H17         6.1690   -3.7040   -2.9680 hn        1 MOL      0.290684
     46 H18         5.6040   -2.9810   -5.0780 h1        1 MOL      0.128731
     47 H19         5.8930   -1.3490   -4.6500 h1        1 MOL      0.128731
     48 N5          3.3460   -2.2970   -3.0580 n         1 MOL     -0.321706
     49 C16         2.0080   -1.7630   -2.6710 c3        1 MOL     -0.337479
     50 C17         2.0710   -0.2600   -2.4720 c         1 MOL      0.765509
     51 O10         3.0870    0.2920   -2.0050 o         1 MOL     -0.534696
     52 C18         1.6490   -2.4220   -1.2990 c3        1 MOL      0.052809
     53 C19         1.4580   -3.9350   -1.3390 c         1 MOL      0.657881
     54 N6          1.2080   -4.4720   -0.1710 n         1 MOL     -0.726550
     55 O11         1.3050   -4.6130   -2.3490 o         1 MOL     -0.559605
     56 H20         3.9110   -2.7570   -2.3490 hn        1 MOL      0.263629
     57 H21         1.3000   -1.9160   -3.4880 h1        1 MOL      0.195220
     58 H22         0.7870   -1.9200   -0.8630 hc        1 MOL     -0.029563
     59 H23         2.5490   -2.3440   -0.6960 hc        1 MOL     -0.029563
     60 H24         1.2090   -3.9430    0.6800 hn        1 MOL      0.355683
     61 H25         1.1380   -5.4750   -0.0890 hn        1 MOL      0.355683
     62 N7          0.9850    0.4380   -2.7700 n         1 MOL     -0.577622
     63 C20         0.5970    1.7090   -2.2110 c3        1 MOL      0.231632
     64 C21         0.7980    2.8780   -3.2350 c         1 MOL      0.453538
     65 O12         1.1180    2.6070   -4.3910 o         1 MOL     -0.526436
     66 H26         0.1750   -0.0760   -3.0920 hn        1 MOL      0.319192
     67 H27         0.9730    2.0320   -1.2420 h1        1 MOL      0.013015
     68 H28        -0.4800    1.6630   -2.0930 h1        1 MOL      0.013015
     69 N8          0.6780    4.1520   -2.9190 n         1 MOL     -0.406885
     70 C22         0.3060    4.7220   -1.6020 c3        1 MOL      0.070064
     71 C23        -0.9890    4.0640   -1.0540 c         1 MOL      0.335835
     72 O13        -1.8990    3.7000   -1.8100 o         1 MOL     -0.506019
     73 C24         0.0270    6.2660   -1.7000 c3        1 MOL      0.232963
     74 C25        -0.0810    7.0640   -0.4100 c3        1 MOL     -0.188681
     75 O14         0.9610    6.9310   -2.6470 oh        1 MOL     -0.625701
     76 H29         0.9090    4.7880   -3.6590 hn        1 MOL      0.282317
     77 H30         1.1080    4.5240   -0.8960 h1        1 MOL      0.057775
     78 H31        -0.9670    6.3740   -2.1290 h1        1 MOL      0.046441
     79 H32         0.5380    7.7680   -2.8660 ho        1 MOL      0.385843
     80 H33        -0.3000    8.1180   -0.6290 hc        1 MOL      0.050736
     81 H34        -0.8380    6.5850    0.1980 hc        1 MOL      0.050736
     82 H35         0.8340    7.0950    0.1770 hc        1 MOL      0.050736
     83 N9         -0.9790    3.7630    0.2620 n         1 MOL     -0.126713
     84 C26        -2.1550    3.2910    1.0100 c3        1 MOL     -0.108900
     85 C27        -3.0040    4.4610    1.4560 c         1 MOL      0.496734
     86 O15        -2.6750    5.2700    2.3160 o         1 MOL     -0.566261
     87 C28        -1.6760    2.4240    2.1490 c3        1 MOL      0.043160
     88 C29        -0.8570    1.1660    1.7970 c3        1 MOL     -0.256367
     89 C30        -2.8090    1.9070    3.0810 c3        1 MOL     -0.235562
     90 C31        -1.5400    0.1770    0.8740 c3        1 MOL     -0.153785
     91 H36        -0.1250    3.9290    0.7870 hn        1 MOL      0.163342
     92 H37        -2.7830    2.7530    0.3060 h1        1 MOL      0.060657
     93 H38        -1.0820    3.0260    2.8370 hc        1 MOL      0.039294
     94 H39        -0.5830    0.6430    2.7200 hc        1 MOL      0.075133
     95 H40        -0.0150    1.5120    1.1980 hc        1 MOL      0.075133
     96 H41        -2.4280    1.6230    4.0610 hc        1 MOL      0.081691
     97 H42        -3.4370    2.7430    3.3910 hc        1 MOL      0.081691
     98 H43        -3.4390    1.1680    2.5810 hc        1 MOL      0.081691
     99 H44        -2.5080   -0.1300    1.2840 hc        1 MOL      0.089896
    100 H45        -1.7860    0.7230   -0.0410 hc        1 MOL      0.089896
    101 H46        -0.8650   -0.6260    0.5970 hc        1 MOL      0.089896
    102 N10        -4.1690    4.6470    0.8620 n         1 MOL     -0.335135
    103 C32        -4.9600    3.8170   -0.1000 c3        1 MOL      0.245314
    104 C33        -5.6100    2.5950    0.5530 c         1 MOL      0.892360
    105 O16        -5.6580    2.4710    1.7250 o         1 MOL     -0.596802
    106 C34        -6.0500    4.7750   -0.6520 c3        1 MOL     -0.500831
    107 C35        -6.9330    5.5710    0.2400 c         1 MOL      0.753506
    108 O17        -8.0630    5.1610    0.6130 o         1 MOL     -0.710040
    109 O18        -6.5400    6.5970    0.8550 o         1 MOL     -0.710040
    110 H47        -4.5480    5.5190    1.2150 hn        1 MOL      0.232922
    111 H48        -4.3960    3.4550   -0.9600 h1        1 MOL      0.019459
    112 H49        -6.7150    4.1510   -1.2460 hc        1 MOL      0.090442
    113 H50        -5.5630    5.3660   -1.4260 hc        1 MOL      0.090442
    114 N11        -6.2980    1.8170   -0.2780 n         1 MOL     -0.933186
    115 C36        -6.9920    0.6030    0.1630 c3        1 MOL      0.404694
    116 C37        -7.4070   -0.2390   -1.0940 c         1 MOL      0.438747
    117 O19        -7.6040    0.3320   -2.1840 o         1 MOL     -0.540490
    118 C38        -8.3100    1.0180    0.8370 c3        1 MOL     -0.280724
    119 C39        -9.0930   -0.1700    1.3050 ca        1 MOL      0.032464
    120 C40       -10.1630   -0.6830    0.4780 ca        1 MOL     -0.126930
    121 C41        -8.8540   -0.8220    2.5510 ca        1 MOL     -0.126930
    122 C42       -10.9660   -1.7370    0.9300 ca        1 MOL     -0.151559
    123 C43        -9.6770   -1.9150    3.0110 ca        1 MOL     -0.151559
    124 C44       -10.7290   -2.3740    2.1670 ca        1 MOL     -0.087184
    125 H51        -6.2750    2.1200   -1.2380 hn        1 MOL      0.376688
    126 H52        -6.3360    0.0380    0.8320 h1        1 MOL      0.010415
    127 H53        -8.9370    1.5850    0.1480 hc        1 MOL      0.135843
    128 H54        -7.9810    1.6820    1.6410 hc        1 MOL      0.135843
    129 H55       -10.4300   -0.2120   -0.4570 ha        1 MOL      0.115214
    130 H56        -7.9760   -0.5950    3.1290 ha        1 MOL      0.115214
    131 H57       -11.7200   -2.0830    0.2270 ha        1 MOL      0.109840
    132 H58        -9.6730   -2.3750    3.9930 ha        1 MOL      0.109840
    133 H59       -11.4060   -3.1660    2.4720 ha        1 MOL      0.083418
    134 N12        -7.4400   -1.6110   -0.9780 n         1 MOL     -0.118909
    135 C45        -6.9650   -2.5280    0.0340 c3        1 MOL      0.277583
    136 C46        -5.4720   -2.5150    0.1520 c         1 MOL      0.382147
    137 O20        -4.8460   -1.4450    0.0050 o         1 MOL     -0.562686
    138 C47        -7.5530   -3.9530   -0.3320 c3        1 MOL      0.048786
    139 C48        -8.7480   -3.5810   -1.2080 c3        1 MOL      0.035812
    140 C49        -8.2080   -2.3800   -1.9120 c3        1 MOL     -0.151976
    141 H60        -7.4560   -2.3240    0.9930 h1        1 MOL     -0.074072
    142 H61        -6.9010   -4.7010   -0.7930 hc        1 MOL     -0.009703
    143 H62        -7.9130   -4.3750    0.6100 hc        1 MOL     -0.009703
    144 H63        -9.0300   -4.3560   -1.9140 hc        1 MOL     -0.008324
    145 H64        -9.6270   -3.3570   -0.6040 hc        1 MOL     -0.008324
    146 H65        -7.5440   -2.7420   -2.6930 h1        1 MOL      0.079146
    147 H66        -9.0350   -1.8010   -2.3170 h1        1 MOL      0.079146
    148 N13        -4.8410   -3.6820    0.4890 n         1 MOL     -0.300708
    149 C50        -3.3940   -3.8260    0.7010 c3        1 MOL      0.491204
    150 C51        -3.0390   -4.8120    1.7490 c         1 MOL      0.355122
    151 O21        -2.1420   -5.6240    1.6000 o         1 MOL     -0.527439
    152 C52        -2.6430   -3.9610   -0.6440 c3        1 MOL     -0.139477
    153 C53        -2.7950   -5.2530   -1.3870 c3        1 MOL      0.059179
    154 C54        -4.2400   -5.5940   -1.7150 c         1 MOL      0.578971
    155 O22        -4.9350   -6.1280   -0.8290 o         1 MOL     -0.686991
    156 O23        -4.6990   -5.1780   -2.8440 o         1 MOL     -0.686991
    157 H67        -5.3710   -4.5410    0.5370 hn        1 MOL      0.146263
    158 H68        -2.9680   -2.8800    1.0390 h1        1 MOL     -0.107372
    159 H69        -1.5770   -3.8970   -0.4120 hc        1 MOL      0.028600
    160 H70        -3.0060   -3.1670   -1.2870 hc        1 MOL      0.028600
    161 H71        -2.3340   -6.0600   -0.8120 hc        1 MOL     -0.038083
    162 H72        -2.1700   -5.1740   -2.2760 hc        1 MOL     -0.038083
    163 N14        -3.7900   -4.9510    2.8740 n         1 MOL     -0.365953
    164 C55        -4.6080   -3.8800    3.5290 c3        1 MOL     -0.046559
    165 H73        -4.6490   -3.0070    2.8780 h1        1 MOL      0.044680
    166 H74        -5.6180   -4.2490    3.7040 h1        1 MOL      0.044680
    167 H75        -4.1520   -3.6040    4.4800 h1        1 MOL      0.044680
    168 H76        -3.5850   -5.7710    3.4270 hn        1 MOL      0.270144
    169 Ca1         5.3510    1.4420   -0.8940 Ca        1 MOL      1.705913
    170 O24         7.3370    2.9030   -1.7060 oh        1 MOL     -0.819595
    171 H77         7.5050    3.1690   -2.6120 ho        1 MOL      0.408512
    172 H78         7.7690    3.5740   -1.1780 ho        1 MOL      0.408512
    173 O25         5.4360    1.6770   -3.6710 oh        1 MOL     -0.819595
    174 H79         6.2470    1.5890   -4.1740 ho        1 MOL      0.408512
    175 H80         4.7580    1.3080   -4.2460 ho        1 MOL      0.408512
    176 O26         4.2200    3.7940   -1.2150 oh        1 MOL     -0.819595
    177 H81         4.1350    4.4150   -1.9370 ho        1 MOL      0.408512
    178 H82         3.9370    4.2870   -0.4440 ho        1 MOL      0.408512
    179 O27         3.2220    2.0550    0.9070 oh        1 MOL     -0.819595
    180 H83         2.7670    1.4130    1.4450 ho        1 MOL      0.408512
    181 H84         3.6180    2.6680    1.5360 ho        1 MOL      0.408512
@<TRIPOS>BOND
     1    1    2 1   
     2    1    4 1   
     3    1    5 1   
     4    1    6 1   
     5    2    3 2   
     6    2    7 1   
     7    7    8 1   
     8    7   15 1   
     9    8    9 1   
    10    8   11 1   
    11    8   16 1   
    12    9   10 2   
    13    9   19 1   
    14   11   12 1   
    15   11   17 1   
    16   11   18 1   
    17   12   13 1   
    18   12   14 1   
    19   19   20 1   
    20   19   24 1   
    21   20   21 1   
    22   20   23 1   
    23   20   25 1   
    24   21   22 2   
    25   21   29 1   
    26   23   26 1   
    27   23   27 1   
    28   23   28 1   
    29   29   30 1   
    30   29   37 1   
    31   30   31 1   
    32   30   33 1   
    33   30   38 1   
    34   31   32 2   
    35   31   41 1   
    36   33   34 1   
    37   33   39 1   
    38   33   40 1   
    39   34   35 1   
    40   34   36 1   
    41   41   42 1   
    42   41   45 1   
    43   42   43 1   
    44   42   46 1   
    45   42   47 1   
    46   43   44 2   
    47   43   48 1   
    48   48   49 1   
    49   48   56 1   
    50   49   50 1   
    51   49   52 1   
    52   49   57 1   
    53   50   51 2   
    54   50   62 1   
    55   52   53 1   
    56   52   58 1   
    57   52   59 1   
    58   53   54 1   
    59   53   55 2   
    60   54   60 1   
    61   54   61 1   
    62   62   63 1   
    63   62   66 1   
    64   63   64 1   
    65   63   67 1   
    66   63   68 1   
    67   64   65 2   
    68   64   69 1   
    69   69   70 1   
    70   69   76 1   
    71   70   71 1   
    72   70   73 1   
    73   70   77 1   
    74   71   72 2   
    75   71   83 1   
    76   73   74 1   
    77   73   75 1   
    78   73   78 1   
    79   74   80 1   
    80   74   81 1   
    81   74   82 1   
    82   75   79 1   
    83   83   84 1   
    84   83   91 1   
    85   84   85 1   
    86   84   87 1   
    87   84   92 1   
    88   85   86 2   
    89   85  102 1   
    90   87   88 1   
    91   87   89 1   
    92   87   93 1   
    93   88   90 1   
    94   88   94 1   
    95   88   95 1   
    96   89   96 1   
    97   89   97 1   
    98   89   98 1   
    99   90   99 1   
   100   90  100 1   
   101   90  101 1   
   102  102  103 1   
   103  102  110 1   
   104  103  104 1   
   105  103  106 1   
   106  103  111 1   
   107  104  105 2   
   108  104  114 1   
   109  106  107 1   
   110  106  112 1   
   111  106  113 1   
   112  107  108 1   
   113  107  109 1   
   114  114  115 1   
   115  114  125 1   
   116  115  116 1   
   117  115  118 1   
   118  115  126 1   
   119  116  117 2   
   120  116  134 1   
   121  118  119 1   
   122  118  127 1   
   123  118  128 1   
   124  119  120 ar  
   125  119  121 ar  
   126  120  122 ar  
   127  120  129 1   
   128  121  123 ar  
   129  121  130 1   
   130  122  124 ar  
   131  122  131 1   
   132  123  124 ar  
   133  123  132 1   
   134  124  133 1   
   135  134  135 1   
   136  134  140 1   
   137  135  136 1   
   138  135  138 1   
   139  135  141 1   
   140  136  137 2   
   141  136  148 1   
   142  138  139 1   
   143  138  142 1   
   144  138  143 1   
   145  139  140 1   
   146  139  144 1   
   147  139  145 1   
   148  140  146 1   
   149  140  147 1   
   150  148  149 1   
   151  148  157 1   
   152  149  150 1   
   153  149  152 1   
   154  149  158 1   
   155  150  151 2   
   156  150  163 1   
   157  152  153 1   
   158  152  159 1   
   159  152  160 1   
   160  153  154 1   
   161  153  161 1   
   162  153  162 1   
   163  154  155 1   
   164  154  156 1   
   165  163  164 1   
   166  163  168 1   
   167  164  165 1   
   168  164  166 1   
   169  164  167 1   
   170  170  171 1   
   171  170  172 1   
   172  173  174 1   
   173  173  175 1   
   174  176  177 1   
   175  176  178 1   
   176  179  180 1   
   177  179  181 1   
@<TRIPOS>SUBSTRUCTURE
     1 MOL         1 TEMP              0 ****  ****    0 ROOT
