@<TRIPOS>MOLECULE
MOL
  182   178     1     0     0
SMALL
resp


@<TRIPOS>ATOM
      1 C1         -0.1850   -3.0020    6.5220 c3        1 MOL     -0.455973
      2 C2          0.0870   -2.9270    4.9850 c         1 MOL      0.687037
      3 O1         -0.8410   -3.0700    4.1740 o         1 MOL     -0.543815
      4 H1         -0.6620   -2.0800    6.8520 hc        1 MOL      0.128251
      5 H2         -0.8410   -3.8460    6.7350 hc        1 MOL      0.128251
      6 H3          0.7590   -3.1320    7.0520 hc        1 MOL      0.128251
      7 N1          1.3050   -2.6850    4.6620 n         1 MOL     -0.508414
      8 C3          1.7680   -2.5600    3.2710 c3        1 MOL      0.003253
      9 C4          1.8980   -3.8900    2.5430 c         1 MOL      0.545045
     10 O2          1.9430   -4.9940    3.1140 o         1 MOL     -0.534509
     11 C5          3.1170   -1.8570    3.2040 c3        1 MOL     -0.090327
     12 C6          3.2880   -1.0370    1.9360 c         1 MOL      0.481047
     13 O3          3.6240    0.1330    1.9340 o         1 MOL     -0.592215
     14 O4          3.2320   -1.6950    0.8210 o         1 MOL     -0.592215
     15 H4          1.9380   -2.4590    5.4090 hn        1 MOL      0.321131
     16 H5          1.0130   -1.9040    2.8330 h1        1 MOL      0.033708
     17 H6          3.9050   -2.6000    3.1500 hc        1 MOL      0.064718
     18 H7          3.2560   -1.2480    4.0930 hc        1 MOL      0.064718
     19 N2          1.8310   -3.9060    1.1740 n         1 MOL     -0.307585
     20 C7          1.7030   -5.0460    0.2800 c3        1 MOL      0.034745
     21 C8          2.9330   -5.1860   -0.6250 c         1 MOL      0.436516
     22 O5          3.0690   -6.0850   -1.4860 o         1 MOL     -0.544524
     23 C9          0.4350   -4.8140   -0.6280 c3        1 MOL      0.231770
     24 C10         0.1750   -5.9650   -1.6310 c3        1 MOL     -0.037809
     25 C11         0.3280   -5.5450   -3.0260 c3        1 MOL      0.056653
     26 C12         0.0170   -6.5870   -4.1110 c3        1 MOL     -0.013901
     27 N3         -0.1100   -5.9870   -5.4770 n4        1 MOL     -0.226496
     28 H8          1.7390   -3.0020    0.7420 hn        1 MOL      0.092192
     29 H9          1.6790   -6.0120    0.7830 h1        1 MOL      0.093700
     30 H10         0.5470   -3.9340   -1.2580 hc        1 MOL     -0.067107
     31 H11        -0.4680   -4.6100   -0.0490 hc        1 MOL     -0.067107
     32 H12        -0.8530   -6.2820   -1.4710 hc        1 MOL      0.007321
     33 H13         0.6700   -6.8830   -1.3040 hc        1 MOL      0.007321
     34 H14         1.3650   -5.2130   -3.1700 hc        1 MOL      0.014317
     35 H15        -0.3040   -4.6810   -3.2320 hc        1 MOL      0.014317
     36 H16        -0.9450   -7.0370   -3.8610 hx        1 MOL      0.085866
     37 H17         0.8330   -7.3060   -4.1830 hx        1 MOL      0.085866
     38 H18        -0.7400   -5.1990   -5.4050 hn        1 MOL      0.247196
     39 H19         0.7740   -5.7300   -5.8700 hn        1 MOL      0.247196
     40 H20        -0.6100   -6.5170   -6.1720 hn        1 MOL      0.247196
     41 N4          3.8780   -4.1990   -0.5520 n         1 MOL     -0.335641
     42 C13         5.0370   -4.1630   -1.3980 c3        1 MOL      0.128222
     43 C14         6.2720   -3.5310   -0.5990 c         1 MOL      0.283583
     44 O6          7.3120   -3.2280   -1.2060 o         1 MOL     -0.464705
     45 C15         4.8090   -3.5350   -2.7610 c3        1 MOL     -0.252522
     46 C16         4.2850   -2.1060   -2.8190 c         1 MOL      0.940848
     47 O7          3.2460   -1.9240   -3.5330 o         1 MOL     -0.813164
     48 O8          4.6930   -1.1890   -2.0280 o         1 MOL     -0.813164
     49 H21         3.6520   -3.4370    0.0720 hn        1 MOL      0.207613
     50 H22         5.3110   -5.2150   -1.4680 h1        1 MOL      0.095475
     51 H23         4.1930   -4.2390   -3.3170 hc        1 MOL      0.077409
     52 H24         5.7560   -3.6230   -3.2790 hc        1 MOL      0.077409
     53 N5          6.1090   -3.1960    0.6980 n         1 MOL     -0.102238
     54 C17         6.9460   -2.4190    1.6140 c3        1 MOL     -0.202921
     55 C18         7.2580   -0.9710    1.2830 c         1 MOL      0.612285
     56 O9          7.9930   -0.2750    1.9520 o         1 MOL     -0.577849
     57 H25         5.3160   -3.6790    1.0980 hn        1 MOL      0.152201
     58 H26         7.9120   -2.9230    1.6970 h1        1 MOL      0.113254
     59 H27         6.4890   -2.3820    2.6020 h1        1 MOL      0.113254
     60 N6          6.8410   -0.4330    0.1150 n         1 MOL     -0.232245
     61 C19         7.3280    0.8320   -0.4730 c3        1 MOL      0.070238
     62 C20         6.2270    1.9160   -0.4750 c         1 MOL      0.532446
     63 O10         5.0530    1.6210   -0.5800 o         1 MOL     -0.472154
     64 C21         7.8740    0.5540   -1.9350 c3        1 MOL     -0.231503
     65 C22         9.2020   -0.1090   -1.9060 c         1 MOL      0.639163
     66 N7          9.3450   -1.3900   -1.7060 n         1 MOL     -0.751178
     67 O11        10.2070    0.6480   -2.1100 o         1 MOL     -0.597800
     68 H28         6.2090   -0.9770   -0.4570 hn        1 MOL      0.060578
     69 H29         8.2180    1.1590    0.0560 h1        1 MOL      0.085842
     70 H30         7.9570    1.5390   -2.4080 hc        1 MOL      0.078035
     71 H31         7.1850   -0.1610   -2.3950 hc        1 MOL      0.078035
     72 H32         8.5820   -1.9900   -1.4230 hn        1 MOL      0.358435
     73 H33        10.2570   -1.8230   -1.7140 hn        1 MOL      0.358435
     74 N8          6.6790    3.2510   -0.4280 n         1 MOL     -0.529920
     75 C23         5.7020    4.3060   -0.7780 c3        1 MOL      0.039034
     76 C24         4.4990    4.5290    0.1970 c         1 MOL      0.584966
     77 O12         4.7100    4.5690    1.4380 o         1 MOL     -0.522278
     78 H34         7.6570    3.4600   -0.3310 hn        1 MOL      0.353285
     79 H35         5.2530    4.1500   -1.7590 h1        1 MOL      0.055722
     80 H36         6.1750    5.2810   -0.8690 h1        1 MOL      0.055722
     81 N9          3.2960    4.7850   -0.2850 n         1 MOL     -0.678008
     82 C25         2.0600    4.7860    0.5620 c3        1 MOL      0.305459
     83 C26         1.6290    3.3320    0.8720 c         1 MOL      0.613393
     84 O13         2.2300    2.3950    0.3610 o         1 MOL     -0.542431
     85 C27         0.9450    5.5840   -0.2170 c3        1 MOL     -0.416444
     86 C28         1.1180    7.0480   -0.7590 ca        1 MOL      0.222282
     87 C29         1.0640    8.1580    0.1450 ca        1 MOL     -0.230037
     88 C30         1.2270    7.2590   -2.1750 ca        1 MOL     -0.230037
     89 C31         1.0240    9.4450   -0.3360 ca        1 MOL     -0.249365
     90 C32         1.2710    8.5600   -2.6530 ca        1 MOL     -0.249365
     91 C33         1.1940    9.6400   -1.7090 ca        1 MOL      0.336128
     92 O14         1.3460   10.9080   -2.1360 oh        1 MOL     -0.462461
     93 H37         3.1740    4.8780   -1.2790 hn        1 MOL      0.338868
     94 H38         2.2810    5.3520    1.4720 h1        1 MOL      0.067762
     95 H39         0.0010    5.6640    0.3300 hc        1 MOL      0.099166
     96 H40         0.6830    5.0300   -1.1240 hc        1 MOL      0.099166
     97 H41         1.0840    7.9580    1.2140 ha        1 MOL      0.159871
     98 H42         1.2280    6.4730   -2.9150 ha        1 MOL      0.159871
     99 H43         0.9220   10.2600    0.3640 ha        1 MOL      0.167821
    100 H44         1.3260    8.7200   -3.7130 ha        1 MOL      0.167821
    101 H45         1.3260   11.4280   -1.3300 ho        1 MOL      0.353720
    102 N10         0.6010    3.1830    1.7120 n         1 MOL     -0.728544
    103 C34         0.0920    2.0240    2.3740 c3        1 MOL      0.144659
    104 C35        -0.2000    0.8060    1.4720 c         1 MOL      0.561013
    105 O15         0.6660    0.1310    0.9560 o         1 MOL     -0.473979
    106 C36         0.9660    1.6750    3.5980 c3        1 MOL      0.194637
    107 C37         0.0940    0.7750    4.4790 c3        1 MOL     -0.056122
    108 C38         1.4810    2.8500    4.4390 c3        1 MOL     -0.276633
    109 C39        -0.9740    1.4080    5.2840 c3        1 MOL     -0.240100
    110 H46         0.0510    4.0040    1.9080 hn        1 MOL      0.337537
    111 H47        -0.9110    2.3140    2.7040 h1        1 MOL      0.060222
    112 H48         1.8410    1.0980    3.2900 hc        1 MOL      0.033769
    113 H49         0.7870    0.2850    5.1660 hc        1 MOL      0.036344
    114 H50        -0.3020   -0.0410    3.8860 hc        1 MOL      0.036344
    115 H51         2.2350    3.4090    3.8880 hc        1 MOL      0.073764
    116 H52         0.7600    3.6280    4.6880 hc        1 MOL      0.073764
    117 H53         1.8870    2.4790    5.3810 hc        1 MOL      0.073764
    118 H54        -1.3730    0.5210    5.7550 hc        1 MOL      0.059249
    119 H55        -0.6990    2.1350    6.0460 hc        1 MOL      0.059249
    120 H56        -1.7480    1.8570    4.6610 hc        1 MOL      0.059249
    121 N11        -1.4800    0.3970    1.3550 n         1 MOL     -0.466529
    122 C40        -2.0020   -0.8270    0.6590 c3        1 MOL     -0.103307
    123 C41        -3.4520   -0.7220    0.0780 c         1 MOL      0.645634
    124 O16        -3.7980   -1.5100   -0.8240 o         1 MOL     -0.575185
    125 C42        -1.9360   -2.0590    1.5750 c3        1 MOL      0.127837
    126 O17        -2.7410   -1.9270    2.6590 oh        1 MOL     -0.587449
    127 H57        -2.2250    0.8990    1.8260 hn        1 MOL      0.238996
    128 H58        -1.3920   -1.1570   -0.1730 h1        1 MOL      0.089060
    129 H59        -0.9320   -2.2090    1.9910 h1        1 MOL      0.079781
    130 H60        -2.1280   -3.0350    1.1310 h1        1 MOL      0.079781
    131 H61        -2.4490   -2.4550    3.4060 ho        1 MOL      0.380328
    132 N12        -4.2790    0.1690    0.5520 n         1 MOL     -0.639049
    133 C43        -5.6700    0.2770    0.1340 c3        1 MOL      0.245531
    134 C44        -5.9030    0.6530   -1.3690 c         1 MOL      0.705147
    135 O18        -5.0640    1.2660   -1.9910 o         1 MOL     -0.600150
    136 C45        -6.3020    1.2400    1.1310 c3        1 MOL     -0.447972
    137 H62        -3.8710    0.7130    1.3010 hn        1 MOL      0.360210
    138 H63        -6.1280   -0.6910    0.3470 h1        1 MOL      0.114267
    139 H64        -7.3860    1.3340    1.0950 hc        1 MOL      0.126918
    140 H65        -6.1500    0.8320    2.1280 hc        1 MOL      0.126918
    141 H66        -5.8030    2.2160    1.0680 hc        1 MOL      0.126918
    142 N13        -7.0700    0.3660   -1.9260 n         1 MOL     -0.729934
    143 C46        -8.2910   -0.2110   -1.3280 c3        1 MOL      0.332573
    144 C47        -9.5120    0.1680   -2.2180 c         1 MOL      0.529102
    145 O19        -9.3610    0.2690   -3.4710 o         1 MOL     -0.550375
    146 C48        -8.0160   -1.7500   -1.3290 c3        1 MOL     -0.223552
    147 H67        -7.0280    0.4570   -2.9220 hn        1 MOL      0.353298
    148 H68        -8.4840    0.1300   -0.3130 h1        1 MOL     -0.047466
    149 H69        -7.7580   -2.0020   -2.3470 hc        1 MOL      0.068069
    150 H70        -7.1320   -1.9430   -0.7200 hc        1 MOL      0.068069
    151 H71        -9.0180   -2.0880   -1.0610 hc        1 MOL      0.068069
    152 N14       -10.7250    0.3670   -1.6870 n         1 MOL     -0.524684
    153 C49       -11.0450    0.1840   -0.2740 c3        1 MOL     -0.179824
    154 C50       -10.6270    1.3680    0.6400 c         1 MOL      0.467507
    155 O20       -10.3920    1.2220    1.7980 o         1 MOL     -0.514474
    156 C51       -12.6110    0.1040   -0.1040 c3        1 MOL     -0.017761
    157 C52       -13.3710   -1.0560   -0.8540 c3        1 MOL     -0.094414
    158 C53       -12.7800   -2.4870   -0.5790 c         1 MOL      0.670189
    159 O21       -11.8720   -2.9730   -1.2690 o         1 MOL     -0.644243
    160 O22       -13.2050   -3.1270    0.4060 o         1 MOL     -0.644243
    161 H72       -11.5330    0.3670   -2.2930 hn        1 MOL      0.367240
    162 H73       -10.5880   -0.7140    0.1440 h1        1 MOL      0.178863
    163 H74       -13.0000    1.0550   -0.4710 hc        1 MOL      0.048137
    164 H75       -12.8740    0.0030    0.9510 hc        1 MOL      0.048137
    165 H76       -13.4150   -0.7860   -1.9110 hc        1 MOL     -0.004659
    166 H77       -14.4280   -1.0640   -0.6010 hc        1 MOL     -0.004659
    167 N15       -10.4940    2.5610    0.1150 n         1 MOL     -0.274803
    168 C54        -9.8350    3.7350    0.7680 c3        1 MOL     -0.210294
    169 H78       -10.5960    4.3830    1.2020 h1        1 MOL      0.104685
    170 H79        -9.1650    3.3850    1.5540 h1        1 MOL      0.104685
    171 H80        -9.2650    4.2920    0.0240 h1        1 MOL      0.104685
    172 H81       -10.6630    2.6260   -0.8770 hn        1 MOL      0.243960
    173 Ca1         2.8690    0.2830   -0.9210 Ca        1 MOL      1.724034
    174 O23         3.3280    1.0260   -3.4740 oh        1 MOL     -0.841605
    175 H82         2.8960    1.5020   -4.1830 ho        1 MOL      0.410342
    176 H83         3.5180    0.1660   -3.8450 ho        1 MOL      0.410342
    177 O24         1.0550   -1.3930   -2.3740 oh        1 MOL     -0.841605
    178 H84         0.2490   -1.5070   -2.8700 ho        1 MOL      0.410342
    179 H85         1.7530   -1.5420   -3.0210 ho        1 MOL      0.410342
    180 O25         0.7480    1.5490   -2.2910 oh        1 MOL     -0.841605
    181 H86        -0.1450    1.3460   -2.0150 ho        1 MOL      0.410342
    182 H87         0.6510    2.0380   -3.1050 ho        1 MOL      0.410342
@<TRIPOS>BOND
     1    1    2 1   
     2    1    4 1   
     3    1    5 1   
     4    1    6 1   
     5    2    3 2   
     6    2    7 1   
     7    7    8 1   
     8    7   15 1   
     9    8    9 1   
    10    8   11 1   
    11    8   16 1   
    12    9   10 2   
    13    9   19 1   
    14   11   12 1   
    15   11   17 1   
    16   11   18 1   
    17   12   13 1   
    18   12   14 1   
    19   19   20 1   
    20   19   28 1   
    21   20   21 1   
    22   20   23 1   
    23   20   29 1   
    24   21   22 2   
    25   21   41 1   
    26   23   24 1   
    27   23   30 1   
    28   23   31 1   
    29   24   25 1   
    30   24   32 1   
    31   24   33 1   
    32   25   26 1   
    33   25   34 1   
    34   25   35 1   
    35   26   27 1   
    36   26   36 1   
    37   26   37 1   
    38   27   38 1   
    39   27   39 1   
    40   27   40 1   
    41   41   42 1   
    42   41   49 1   
    43   42   43 1   
    44   42   45 1   
    45   42   50 1   
    46   43   44 2   
    47   43   53 1   
    48   45   46 1   
    49   45   51 1   
    50   45   52 1   
    51   46   47 1   
    52   46   48 1   
    53   53   54 1   
    54   53   57 1   
    55   54   55 1   
    56   54   58 1   
    57   54   59 1   
    58   55   56 2   
    59   55   60 1   
    60   60   61 1   
    61   60   68 1   
    62   61   62 1   
    63   61   64 1   
    64   61   69 1   
    65   62   63 2   
    66   62   74 1   
    67   64   65 1   
    68   64   70 1   
    69   64   71 1   
    70   65   66 1   
    71   65   67 2   
    72   66   72 1   
    73   66   73 1   
    74   74   75 1   
    75   74   78 1   
    76   75   76 1   
    77   75   79 1   
    78   75   80 1   
    79   76   77 2   
    80   76   81 1   
    81   81   82 1   
    82   81   93 1   
    83   82   83 1   
    84   82   85 1   
    85   82   94 1   
    86   83   84 2   
    87   83  102 1   
    88   85   86 1   
    89   85   95 1   
    90   85   96 1   
    91   86   87 ar  
    92   86   88 ar  
    93   87   89 ar  
    94   87   97 1   
    95   88   90 ar  
    96   88   98 1   
    97   89   91 ar  
    98   89   99 1   
    99   90   91 ar  
   100   90  100 1   
   101   91   92 1   
   102   92  101 1   
   103  102  103 1   
   104  102  110 1   
   105  103  104 1   
   106  103  106 1   
   107  103  111 1   
   108  104  105 2   
   109  104  121 1   
   110  106  107 1   
   111  106  108 1   
   112  106  112 1   
   113  107  109 1   
   114  107  113 1   
   115  107  114 1   
   116  108  115 1   
   117  108  116 1   
   118  108  117 1   
   119  109  118 1   
   120  109  119 1   
   121  109  120 1   
   122  121  122 1   
   123  121  127 1   
   124  122  123 1   
   125  122  125 1   
   126  122  128 1   
   127  123  124 2   
   128  123  132 1   
   129  125  126 1   
   130  125  129 1   
   131  125  130 1   
   132  126  131 1   
   133  132  133 1   
   134  132  137 1   
   135  133  134 1   
   136  133  136 1   
   137  133  138 1   
   138  134  135 2   
   139  134  142 1   
   140  136  139 1   
   141  136  140 1   
   142  136  141 1   
   143  142  143 1   
   144  142  147 1   
   145  143  144 1   
   146  143  146 1   
   147  143  148 1   
   148  144  145 2   
   149  144  152 1   
   150  146  149 1   
   151  146  150 1   
   152  146  151 1   
   153  152  153 1   
   154  152  161 1   
   155  153  154 1   
   156  153  156 1   
   157  153  162 1   
   158  154  155 2   
   159  154  167 1   
   160  156  157 1   
   161  156  163 1   
   162  156  164 1   
   163  157  158 1   
   164  157  165 1   
   165  157  166 1   
   166  158  159 1   
   167  158  160 1   
   168  167  168 1   
   169  167  172 1   
   170  168  169 1   
   171  168  170 1   
   172  168  171 1   
   173  174  175 1   
   174  174  176 1   
   175  177  178 1   
   176  177  179 1   
   177  180  181 1   
   178  180  182 1   
@<TRIPOS>SUBSTRUCTURE
     1 MOL         1 TEMP              0 ****  ****    0 ROOT
