@<TRIPOS>MOLECULE
MOL
  189   185     1     0     0
SMALL
resp


@<TRIPOS>ATOM
      1 C1         -3.9810   -4.3850   -3.4720 c3        1 MOL     -0.304397
      2 C2         -4.8420   -3.5010   -2.5070 c         1 MOL      0.811402
      3 O1         -4.2970   -3.0390   -1.4610 o         1 MOL     -0.691728
      4 H1         -3.1200   -4.7770   -2.9320 hc        1 MOL      0.085114
      5 H2         -4.5850   -5.2140   -3.8420 hc        1 MOL      0.085114
      6 H3         -3.6390   -3.7800   -4.3120 hc        1 MOL      0.085114
      7 N1         -6.1300   -3.2100   -2.8370 n         1 MOL     -0.780987
      8 C3         -7.0220   -2.1860   -2.2040 c3        1 MOL      0.418553
      9 C4         -6.2920   -0.9010   -1.8140 c         1 MOL      0.384932
     10 O2         -5.9620   -0.6140   -0.6840 o         1 MOL     -0.574139
     11 C5         -7.8650   -2.7620   -1.0380 c3        1 MOL     -0.274144
     12 C6         -7.1240   -3.8110   -0.1470 c         1 MOL      0.829427
     13 O3         -6.3520   -3.4570    0.7120 o         1 MOL     -0.745636
     14 O4         -7.4840   -5.0050   -0.2820 o         1 MOL     -0.745636
     15 H4         -6.2980   -3.4890   -3.7970 hn        1 MOL      0.326401
     16 H5         -7.7540   -1.8160   -2.9260 h1        1 MOL     -0.002039
     17 H6         -8.7530   -3.2170   -1.4740 hc        1 MOL      0.054951
     18 H7         -8.3710   -1.9260   -0.5520 hc        1 MOL      0.054951
     19 N2         -5.9180   -0.0640   -2.8270 n         1 MOL     -0.471587
     20 C7         -5.1210    1.2350   -2.7470 c3        1 MOL      0.089251
     21 C8         -5.8080    2.3560   -1.9690 c         1 MOL      0.337539
     22 O5         -5.9590    3.4720   -2.4950 o         1 MOL     -0.536914
     23 C9         -3.6280    0.9830   -2.2810 c3        1 MOL      0.066725
     24 C10        -2.8170    2.3110   -2.1880 c3        1 MOL     -0.198064
     25 C11        -3.0180    0.0080   -3.3160 c3        1 MOL     -0.092739
     26 C12        -2.8110    3.1840   -3.4630 c3        1 MOL     -0.321783
     27 H8         -6.1800   -0.3780   -3.7510 hn        1 MOL      0.254480
     28 H9         -5.0890    1.5690   -3.7840 h1        1 MOL      0.092931
     29 H10        -3.6970    0.4570   -1.3300 hc        1 MOL     -0.067813
     30 H11        -1.7750    2.1110   -1.9340 hc        1 MOL      0.157895
     31 H12        -3.2620    2.9180   -1.4050 hc        1 MOL      0.157895
     32 H13        -3.2080    0.3150   -4.3540 hc        1 MOL      0.019913
     33 H14        -1.9380    0.0300   -3.1100 hc        1 MOL      0.019913
     34 H15        -3.3540   -1.0110   -3.1730 hc        1 MOL      0.019913
     35 H16        -3.7460    3.1370   -4.0330 hc        1 MOL      0.078491
     36 H17        -2.5830    4.1750   -3.0670 hc        1 MOL      0.078491
     37 H18        -1.9530    2.8740   -4.0530 hc        1 MOL      0.078491
     38 N3         -6.1520    2.2810   -0.6830 n         1 MOL     -0.073763
     39 C13        -6.9680    3.3030    0.0370 c3        1 MOL     -0.017038
     40 C14        -6.2980    4.6460    0.2670 c         1 MOL      0.537404
     41 O6         -6.8070    5.7260   -0.0800 o         1 MOL     -0.580406
     42 C15        -7.6990    2.7620    1.2400 c3        1 MOL     -0.257375
     43 C16        -8.4190    1.3670    1.1520 c         1 MOL      0.820970
     44 O7         -8.1160    0.6780    2.1190 o         1 MOL     -0.729553
     45 O8         -9.2720    1.1060    0.3240 o         1 MOL     -0.729553
     46 H19        -5.8740    1.4970   -0.1150 hn        1 MOL      0.233844
     47 H20        -7.7620    3.5220   -0.6720 h1        1 MOL      0.058753
     48 H21        -8.5300    3.3960    1.5370 hc        1 MOL      0.060433
     49 H22        -6.9260    2.7990    2.0170 hc        1 MOL      0.060433
     50 N4         -5.0420    4.6570    0.7990 n         1 MOL     -0.444519
     51 C17        -4.4100    3.5490    1.4430 c3        1 MOL      0.073343
     52 C18        -4.4190    3.3630    3.0020 c         1 MOL      0.510449
     53 O9         -5.3130    3.8930    3.6040 o         1 MOL     -0.567528
     54 H23        -4.5990    5.5710    0.8250 hn        1 MOL      0.280752
     55 H24        -3.3500    3.6910    1.2180 h1        1 MOL      0.009417
     56 H25        -4.7120    2.5730    1.0450 h1        1 MOL      0.009417
     57 N5         -3.5640    2.5760    3.5710 n         1 MOL     -0.360920
     58 C19        -2.2240    2.1490    3.1390 c3        1 MOL      0.010621
     59 C20        -2.3120    1.0000    2.0670 c         1 MOL      0.284801
     60 O10        -3.2980    0.3380    1.8790 o         1 MOL     -0.532192
     61 C21        -1.4420    1.7110    4.4110 c3        1 MOL     -0.287107
     62 C22        -2.1720    0.5130    5.0940 c         1 MOL      0.759071
     63 O11        -1.7790   -0.6470    4.8130 o         1 MOL     -0.685276
     64 O12        -3.1220    0.6740    5.9110 o         1 MOL     -0.685276
     65 H26        -3.8340    2.2110    4.4730 hn        1 MOL      0.272586
     66 H27        -1.6240    2.8740    2.5940 h1        1 MOL      0.098931
     67 H28        -1.4190    2.5870    5.0570 hc        1 MOL      0.056100
     68 H29        -0.4310    1.4740    4.0960 hc        1 MOL      0.056100
     69 N6         -1.3120    0.7860    1.1950 n         1 MOL     -0.027897
     70 C23        -0.0430    1.3240    1.0720 c3        1 MOL     -0.018698
     71 C24        -0.0130    2.7850    0.5060 c         1 MOL      0.287449
     72 O13        -1.0960    3.3710    0.2720 o         1 MOL     -0.448468
     73 H30        -1.4260   -0.0150    0.5850 hn        1 MOL      0.097424
     74 H31         0.5640    0.6520    0.4670 h1        1 MOL      0.050761
     75 H32         0.5190    1.2640    2.0140 h1        1 MOL      0.050761
     76 N7          1.1960    3.2980    0.2330 n         1 MOL     -0.293948
     77 C25         1.4300    4.5130   -0.5590 c3        1 MOL      0.073147
     78 C26         2.2590    4.3560   -1.8840 c         1 MOL      0.437539
     79 O14         2.4710    5.2760   -2.6500 o         1 MOL     -0.475681
     80 C27         2.1090    5.6070    0.3620 c3        1 MOL     -0.105960
     81 C28         3.5740    5.4000    0.8360 c3        1 MOL     -0.253876
     82 C29         4.0140    6.4540    1.8570 c         1 MOL      0.696922
     83 N8          4.9720    6.1320    2.7060 n         1 MOL     -0.838504
     84 O15         3.4550    7.5540    1.9220 o         1 MOL     -0.560143
     85 H33         2.0070    2.7560    0.5130 hn        1 MOL      0.238374
     86 H34         0.5050    5.0260   -0.8120 h1        1 MOL      0.098684
     87 H35         1.4340    5.8290    1.2000 hc        1 MOL      0.082195
     88 H36         2.1280    6.5140   -0.2470 hc        1 MOL      0.082195
     89 H37         4.1740    5.6390   -0.0320 hc        1 MOL      0.075374
     90 H38         3.6900    4.3670    1.1530 hc        1 MOL      0.075374
     91 H39         5.4710    5.2730    2.5490 hn        1 MOL      0.380653
     92 H40         5.0490    6.7450    3.4940 hn        1 MOL      0.380653
     93 N9          2.9350    3.1730   -2.0630 n         1 MOL     -0.454001
     94 C30         3.4660    2.8180   -3.3930 c3        1 MOL      0.019041
     95 C31         4.8060    1.9850   -3.4490 c         1 MOL      0.539559
     96 O16         5.4980    1.9730   -4.4350 o         1 MOL     -0.526153
     97 C32         2.4440    1.9930   -4.1880 c3        1 MOL      0.045404
     98 C33         1.2120    2.9510   -4.4220 c3        1 MOL     -0.105330
     99 C34         2.0990    0.5830   -3.6320 c3        1 MOL     -0.105330
    100 H41         2.7970    2.4590   -1.3630 hn        1 MOL      0.215601
    101 H42         3.6440    3.7270   -3.9740 h1        1 MOL      0.122354
    102 H43         2.8990    1.8290   -5.1610 hc        1 MOL      0.020268
    103 H44         0.6360    2.7120   -5.3230 hc        1 MOL      0.027968
    104 H45         0.4560    3.0410   -3.6500 hc        1 MOL      0.027968
    105 H46         1.5460    3.9740   -4.5560 hc        1 MOL      0.027968
    106 H47         1.6010    0.6410   -2.6720 hc        1 MOL      0.027968
    107 H48         1.5530    0.1270   -4.4590 hc        1 MOL      0.027968
    108 H49         2.9760   -0.0470   -3.4660 hc        1 MOL      0.027968
    109 N10         5.2330    1.4690   -2.3000 n         1 MOL     -0.496297
    110 C35         6.5750    0.9940   -2.0030 c3        1 MOL      0.200596
    111 C36         6.7360   -0.4940   -1.6100 c         1 MOL      0.526231
    112 O17         7.5480   -1.1540   -2.1680 o         1 MOL     -0.523170
    113 C37         7.2330    1.9180   -0.9400 c3        1 MOL     -0.332251
    114 C38         7.0750    3.4210   -1.1940 c         1 MOL      0.789798
    115 N11         6.6260    4.1530   -0.2190 n         1 MOL     -0.872226
    116 O18         7.4100    3.9710   -2.2100 o         1 MOL     -0.542663
    117 H50         4.5440    1.3050   -1.5740 hn        1 MOL      0.329672
    118 H51         7.2140    1.0580   -2.8780 h1        1 MOL      0.071121
    119 H52         8.2730    1.6960   -0.7110 hc        1 MOL      0.056284
    120 H53         6.6750    1.6880   -0.0320 hc        1 MOL      0.056284
    121 H54         6.5410    3.7580    0.7080 hn        1 MOL      0.354315
    122 H55         6.8110    5.1350   -0.2970 hn        1 MOL      0.354315
    123 N12         5.8160   -1.0230   -0.7820 n         1 MOL     -0.349457
    124 C39         6.0420   -2.1490    0.0670 c3        1 MOL     -0.107254
    125 C40         4.6870   -2.8740    0.3010 c         1 MOL      0.600862
    126 O19         3.6870   -2.1800    0.4100 o         1 MOL     -0.473990
    127 C41         6.4680   -1.6520    1.4450 c3        1 MOL      0.011456
    128 C42         7.7500   -0.8740    1.5490 ca        1 MOL     -0.029928
    129 C43         8.9260   -1.4190    1.0460 ca        1 MOL     -0.100555
    130 C44         7.8540    0.3000    2.2930 ca        1 MOL     -0.100555
    131 C45        10.1630   -0.7540    1.1510 ca        1 MOL     -0.251679
    132 C46         9.1290    0.8930    2.4260 ca        1 MOL     -0.251679
    133 C47        10.3410    0.3790    1.8640 ca        1 MOL      0.356911
    134 O20        11.5570    0.9000    2.1440 oh        1 MOL     -0.532281
    135 H56         4.9100   -0.5680   -0.8170 hn        1 MOL      0.177626
    136 H57         6.7920   -2.8570   -0.2880 h1        1 MOL      0.084745
    137 H58         6.3990   -2.4550    2.1780 hc        1 MOL      0.064954
    138 H59         5.6510   -0.9980    1.7610 hc        1 MOL      0.064954
    139 H60         8.8390   -2.3520    0.5070 ha        1 MOL      0.120821
    140 H61         7.0380    0.7990    2.7830 ha        1 MOL      0.120821
    141 H62        11.0100   -1.2750    0.7330 ha        1 MOL      0.115401
    142 H63         9.2220    1.7180    3.1220 ha        1 MOL      0.115401
    143 H64        12.3220    0.4500    1.7770 ho        1 MOL      0.391741
    144 N13         4.7510   -4.2080    0.4840 n         1 MOL     -0.598779
    145 C48         3.6390   -5.1840    0.7810 c3        1 MOL      0.025407
    146 C49         2.3060   -5.1470   -0.0890 c         1 MOL      0.130954
    147 O21         1.3940   -6.0090    0.0350 o         1 MOL     -0.451615
    148 C50         3.1440   -5.0630    2.2710 c3        1 MOL      0.284252
    149 C51         4.2790   -5.0720    3.2910 c3        1 MOL     -0.159877
    150 C52         3.7490   -5.1360    4.7370 c         1 MOL      0.686108
    151 O22         2.8090   -5.8930    5.0320 o         1 MOL     -0.718566
    152 O23         4.2700   -4.3610    5.5490 o         1 MOL     -0.718566
    153 H65         5.6370   -4.6610    0.3480 hn        1 MOL      0.324451
    154 H66         4.0490   -6.1780    0.6030 h1        1 MOL      0.086711
    155 H67         2.4750   -5.8960    2.4990 hc        1 MOL     -0.005128
    156 H68         2.6340   -4.1140    2.4110 hc        1 MOL     -0.005128
    157 H69         4.9590   -4.2290    3.1620 hc        1 MOL     -0.040024
    158 H70         4.7520   -6.0320    3.0810 hc        1 MOL     -0.040024
    159 N14         2.1060   -4.1870   -0.9970 n         1 MOL     -0.065747
    160 C53         0.8690   -4.1520   -1.8860 c3        1 MOL     -0.137708
    161 C54         1.2100   -4.8940   -3.1500 c         1 MOL      0.491499
    162 O24         0.3140   -5.3920   -3.8360 o         1 MOL     -0.564767
    163 C55         0.3320   -2.7130   -2.1530 c3        1 MOL      0.064410
    164 C56         0.2920   -1.8590   -0.8820 c3        1 MOL      0.135791
    165 C57        -0.6660   -2.2820    0.2260 c         1 MOL      0.581161
    166 O25        -1.8120   -1.7930    0.1830 o         1 MOL     -0.590004
    167 O26        -0.2380   -3.0170    1.1660 o         1 MOL     -0.590004
    168 H71         2.8210   -3.4720   -0.9980 hn        1 MOL      0.189597
    169 H72         0.0280   -4.6700   -1.4300 h1        1 MOL      0.168325
    170 H73        -0.6500   -2.7100   -2.6220 hc        1 MOL     -0.028672
    171 H74         1.0400   -2.2480   -2.8420 hc        1 MOL     -0.028672
    172 H75        -0.1140   -0.8960   -1.1880 hc        1 MOL     -0.088841
    173 H76         1.2470   -1.6550   -0.3820 hc        1 MOL     -0.088841
    174 N15         2.4680   -4.9060   -3.5390 n         1 MOL     -0.203070
    175 C58         3.1530   -5.6590   -4.6020 c3        1 MOL     -0.258888
    176 H77         4.0100   -6.1840   -4.1790 h1        1 MOL      0.107462
    177 H78         2.4630   -6.3810   -5.0380 h1        1 MOL      0.107462
    178 H79         3.4950   -4.9690   -5.3740 h1        1 MOL      0.107462
    179 H80         3.0650   -4.4570   -2.8640 hn        1 MOL      0.164668
    180 Ca1        -4.2960   -1.9860    0.9590 Ca        1 MOL      1.845562
    181 O27        -3.6130   -4.6430    1.1050 oh        1 MOL     -0.936999
    182 H81        -4.2360   -5.3540    0.9960 ho        1 MOL      0.440927
    183 H82        -2.7560   -5.0580    1.0350 ho        1 MOL      0.440927
    184 O28        -2.9590   -2.4130    3.2640 oh        1 MOL     -0.936999
    185 H83        -2.6790   -1.6810    3.8120 ho        1 MOL      0.440927
    186 H84        -2.5700   -3.1810    3.6750 ho        1 MOL      0.440927
    187 O29        -6.0550   -1.1040    2.7080 oh        1 MOL     -0.936999
    188 H85        -5.8300   -0.9500    3.6220 ho        1 MOL      0.440927
    189 H86        -6.6570   -0.3910    2.4880 ho        1 MOL      0.440927
@<TRIPOS>BOND
     1    1    2 1   
     2    1    4 1   
     3    1    5 1   
     4    1    6 1   
     5    2    3 2   
     6    2    7 1   
     7    7    8 1   
     8    7   15 1   
     9    8    9 1   
    10    8   11 1   
    11    8   16 1   
    12    9   10 2   
    13    9   19 1   
    14   11   12 1   
    15   11   17 1   
    16   11   18 1   
    17   12   13 1   
    18   12   14 1   
    19   19   20 1   
    20   19   27 1   
    21   20   21 1   
    22   20   23 1   
    23   20   28 1   
    24   21   22 2   
    25   21   38 1   
    26   23   24 1   
    27   23   25 1   
    28   23   29 1   
    29   24   26 1   
    30   24   30 1   
    31   24   31 1   
    32   25   32 1   
    33   25   33 1   
    34   25   34 1   
    35   26   35 1   
    36   26   36 1   
    37   26   37 1   
    38   38   39 1   
    39   38   46 1   
    40   39   40 1   
    41   39   42 1   
    42   39   47 1   
    43   40   41 2   
    44   40   50 1   
    45   42   43 1   
    46   42   48 1   
    47   42   49 1   
    48   43   44 1   
    49   43   45 1   
    50   50   51 1   
    51   50   54 1   
    52   51   52 1   
    53   51   55 1   
    54   51   56 1   
    55   52   53 2   
    56   52   57 1   
    57   57   58 1   
    58   57   65 1   
    59   58   59 1   
    60   58   61 1   
    61   58   66 1   
    62   59   60 2   
    63   59   69 1   
    64   61   62 1   
    65   61   67 1   
    66   61   68 1   
    67   62   63 1   
    68   62   64 1   
    69   69   70 1   
    70   69   73 1   
    71   70   71 1   
    72   70   74 1   
    73   70   75 1   
    74   71   72 2   
    75   71   76 1   
    76   76   77 1   
    77   76   85 1   
    78   77   78 1   
    79   77   80 1   
    80   77   86 1   
    81   78   79 2   
    82   78   93 1   
    83   80   81 1   
    84   80   87 1   
    85   80   88 1   
    86   81   82 1   
    87   81   89 1   
    88   81   90 1   
    89   82   83 1   
    90   82   84 2   
    91   83   91 1   
    92   83   92 1   
    93   93   94 1   
    94   93  100 1   
    95   94   95 1   
    96   94   97 1   
    97   94  101 1   
    98   95   96 2   
    99   95  109 1   
   100   97   98 1   
   101   97   99 1   
   102   97  102 1   
   103   98  103 1   
   104   98  104 1   
   105   98  105 1   
   106   99  106 1   
   107   99  107 1   
   108   99  108 1   
   109  109  110 1   
   110  109  117 1   
   111  110  111 1   
   112  110  113 1   
   113  110  118 1   
   114  111  112 2   
   115  111  123 1   
   116  113  114 1   
   117  113  119 1   
   118  113  120 1   
   119  114  115 1   
   120  114  116 2   
   121  115  121 1   
   122  115  122 1   
   123  123  124 1   
   124  123  135 1   
   125  124  125 1   
   126  124  127 1   
   127  124  136 1   
   128  125  126 2   
   129  125  144 1   
   130  127  128 1   
   131  127  137 1   
   132  127  138 1   
   133  128  129 ar  
   134  128  130 ar  
   135  129  131 ar  
   136  129  139 1   
   137  130  132 ar  
   138  130  140 1   
   139  131  133 ar  
   140  131  141 1   
   141  132  133 ar  
   142  132  142 1   
   143  133  134 1   
   144  134  143 1   
   145  144  145 1   
   146  144  153 1   
   147  145  146 1   
   148  145  148 1   
   149  145  154 1   
   150  146  147 2   
   151  146  159 1   
   152  148  149 1   
   153  148  155 1   
   154  148  156 1   
   155  149  150 1   
   156  149  157 1   
   157  149  158 1   
   158  150  151 1   
   159  150  152 1   
   160  159  160 1   
   161  159  168 1   
   162  160  161 1   
   163  160  163 1   
   164  160  169 1   
   165  161  162 2   
   166  161  174 1   
   167  163  164 1   
   168  163  170 1   
   169  163  171 1   
   170  164  165 1   
   171  164  172 1   
   172  164  173 1   
   173  165  166 1   
   174  165  167 1   
   175  174  175 1   
   176  174  179 1   
   177  175  176 1   
   178  175  177 1   
   179  175  178 1   
   180  181  182 1   
   181  181  183 1   
   182  184  185 1   
   183  184  186 1   
   184  187  188 1   
   185  187  189 1   
@<TRIPOS>SUBSTRUCTURE
     1 MOL         1 TEMP              0 ****  ****    0 ROOT
