@<TRIPOS>MOLECULE
MOL
  181   177     1     0     0
SMALL
resp


@<TRIPOS>ATOM
      1 C1          2.3870   -2.7520    4.2100 c3        1 MOL     -0.444775
      2 C2          3.8860   -2.2160    3.9070 c         1 MOL      0.616683
      3 O1          4.3730   -1.2810    4.5940 o         1 MOL     -0.599520
      4 H1          2.4370   -3.6110    4.8790 hc        1 MOL      0.124778
      5 H2          1.8050   -1.9590    4.6820 hc        1 MOL      0.124778
      6 H3          1.9090   -3.0460    3.2750 hc        1 MOL      0.124778
      7 N1          4.6090   -2.9100    3.0210 n         1 MOL     -0.538779
      8 C3          6.0740   -2.9780    2.9050 c3        1 MOL      0.420879
      9 C4          6.5160   -2.5740    1.4930 c         1 MOL      0.365448
     10 O2          7.3600   -3.3030    0.9530 o         1 MOL     -0.526535
     11 C5          6.5990   -4.3640    3.3990 c3        1 MOL     -0.250187
     12 C6          5.8070   -5.5000    2.7440 c         1 MOL      0.745484
     13 O3          5.9090   -6.6590    3.2100 o         1 MOL     -0.694028
     14 O4          5.2380   -5.3500    1.6530 o         1 MOL     -0.694028
     15 H4          4.0470   -3.6060    2.5630 hn        1 MOL      0.245871
     16 H5          6.5490   -2.2120    3.5190 h1        1 MOL     -0.027044
     17 H6          6.3440   -4.5310    4.4480 hc        1 MOL      0.035275
     18 H7          7.6860   -4.4140    3.4090 hc        1 MOL      0.035275
     19 N2          6.1180   -1.4130    0.9980 n         1 MOL     -0.354759
     20 C7          6.5010   -1.0140   -0.3400 c3        1 MOL      0.080138
     21 C8          5.3720   -0.2580   -1.0620 c         1 MOL      0.573131
     22 O5          4.6370    0.5230   -0.5010 o         1 MOL     -0.543195
     23 C9          7.7700   -0.2250   -0.1550 c3        1 MOL     -0.204057
     24 H8          5.3620   -0.9730    1.5140 hn        1 MOL      0.238797
     25 H9          6.6910   -1.8970   -0.9530 h1        1 MOL      0.081157
     26 H10         8.0730    0.2990   -1.0570 hc        1 MOL      0.055335
     27 H11         7.6890    0.4990    0.6460 hc        1 MOL      0.055335
     28 H12         8.6140   -0.8710    0.0940 hc        1 MOL      0.055335
     29 N3          5.1120   -0.5040   -2.3050 n         1 MOL     -0.540358
     30 C10         3.9500    0.0720   -3.1610 c3        1 MOL     -0.341611
     31 C11         4.3880    1.3730   -3.8090 c         1 MOL      0.635561
     32 O6          3.5920    2.1000   -4.4480 o         1 MOL     -0.563692
     33 C12         3.5130   -0.8580   -4.1860 c3        1 MOL      0.044103
     34 C13         3.3790   -2.3450   -3.7630 c         1 MOL      0.741104
     35 O7          4.1990   -3.1600   -4.2620 o         1 MOL     -0.748003
     36 O8          2.3860   -2.7320   -3.0840 o         1 MOL     -0.748003
     37 H13         5.7950   -1.1010   -2.7500 hn        1 MOL      0.308625
     38 H14         3.1880    0.3730   -2.4480 h1        1 MOL      0.194552
     39 H15         4.3090   -0.8170   -4.9270 hc        1 MOL      0.029785
     40 H16         2.7140   -0.5140   -4.8320 hc        1 MOL      0.029785
     41 N4          5.5570    1.8570   -3.5830 n         1 MOL     -0.384629
     42 C14         6.0560    3.1730   -4.1340 c3        1 MOL     -0.158197
     43 C15         5.6310    4.5120   -3.4290 c         1 MOL      0.607004
     44 O9          6.3740    5.4730   -3.3440 o         1 MOL     -0.575261
     45 H17         6.0710    1.4790   -2.8120 hn        1 MOL      0.315381
     46 H18         5.7310    3.3290   -5.1540 h1        1 MOL      0.092325
     47 H19         7.1420    3.1230   -4.1240 h1        1 MOL      0.092325
     48 N5          4.4060    4.4500   -2.9100 n         1 MOL     -0.497094
     49 C16         3.6780    5.4540   -2.1520 c3        1 MOL      0.422035
     50 C17         2.8010    4.9280   -0.9930 c         1 MOL      0.229561
     51 O10         2.2000    3.8190   -0.9020 o         1 MOL     -0.382414
     52 C18         2.9440    6.3410   -3.1700 c3        1 MOL     -0.369613
     53 C19         2.1140    7.5300   -2.5180 c         1 MOL      0.607616
     54 N6          2.8350    8.5850   -2.1820 n         1 MOL     -0.775662
     55 O11         0.9510    7.4090   -2.2460 o         1 MOL     -0.518068
     56 H20         3.8490    3.6240   -3.0880 hn        1 MOL      0.273358
     57 H21         4.3590    6.1410   -1.6390 h1        1 MOL     -0.065641
     58 H22         2.2280    5.6460   -3.6050 hc        1 MOL      0.125894
     59 H23         3.5530    6.7610   -3.9690 hc        1 MOL      0.125894
     60 H24         3.7970    8.6200   -2.4720 hn        1 MOL      0.357608
     61 H25         2.3700    9.3650   -1.7320 hn        1 MOL      0.357608
     62 N7          2.6010    5.8220   -0.0130 n         1 MOL     -0.170554
     63 C20         2.0250    5.5320    1.3200 c3        1 MOL     -0.347027
     64 C21         0.5060    5.6270    1.3840 c         1 MOL      0.592923
     65 O12        -0.2000    5.1360    0.4930 o         1 MOL     -0.444260
     66 H26         2.9460    6.7540   -0.2030 hn        1 MOL      0.211893
     67 H27         2.5680    6.2600    1.9210 h1        1 MOL      0.145603
     68 H28         2.2850    4.5040    1.5830 h1        1 MOL      0.145603
     69 N8         -0.0560    6.0600    2.5050 n         1 MOL     -0.312590
     70 C22        -1.4510    6.2770    2.7300 c3        1 MOL     -0.385683
     71 C23        -2.3050    5.0560    2.6910 c         1 MOL      0.546502
     72 O13        -3.4660    5.1000    2.2970 o         1 MOL     -0.578985
     73 C24        -1.6880    7.1050    3.9750 c3        1 MOL      0.532761
     74 C25        -1.1650    6.5040    5.2950 c3        1 MOL     -0.378231
     75 O14        -1.1710    8.4160    3.8600 oh        1 MOL     -0.681180
     76 H29         0.6040    6.4470    3.1620 hn        1 MOL      0.225010
     77 H30        -1.8200    6.8770    1.9050 h1        1 MOL      0.160485
     78 H31        -2.7610    7.1980    4.0950 h1        1 MOL      0.051300
     79 H32        -0.2160    8.4280    3.7320 ho        1 MOL      0.397865
     80 H33        -1.3290    5.4300    5.1800 hc        1 MOL      0.077836
     81 H34        -0.0960    6.6390    5.4160 hc        1 MOL      0.077836
     82 H35        -1.7860    6.6570    6.1820 hc        1 MOL      0.077836
     83 N9         -1.8100    3.9590    3.1640 n         1 MOL     -0.187933
     84 C26        -2.4240    2.6570    3.2920 c3        1 MOL      0.124823
     85 C27        -1.6120    1.7440    2.3100 c         1 MOL      0.529713
     86 O15        -0.4010    1.9490    2.1220 o         1 MOL     -0.500453
     87 C28        -2.2200    2.3120    4.7670 c3        1 MOL      0.138523
     88 C29        -3.1790    3.0440    5.8700 c3        1 MOL     -0.325721
     89 C30        -2.4280    0.8040    4.9660 c3        1 MOL     -0.116910
     90 C31        -4.5980    3.0460    5.3110 c3        1 MOL      0.021486
     91 H36        -0.8530    3.9540    3.4830 hn        1 MOL      0.157749
     92 H37        -3.4890    2.6100    3.0740 h1        1 MOL      0.006195
     93 H38        -1.1720    2.5340    4.9400 hc        1 MOL     -0.002971
     94 H39        -2.9480    4.1080    5.9260 hc        1 MOL      0.089769
     95 H40        -3.1940    2.5850    6.8590 hc        1 MOL      0.089769
     96 H41        -1.4410    0.3760    4.7950 hc        1 MOL      0.032077
     97 H42        -2.7080    0.4960    5.9690 hc        1 MOL      0.032077
     98 H43        -3.1380    0.4010    4.2460 hc        1 MOL      0.032077
     99 H44        -4.5870    3.6050    4.3770 hc        1 MOL      0.008712
    100 H45        -5.0570    2.0620    5.2870 hc        1 MOL      0.008712
    101 H46        -5.1950    3.7500    5.9030 hc        1 MOL      0.008712
    102 N10        -2.2640    0.7130    1.7300 n         1 MOL     -0.696338
    103 C32        -1.6870   -0.2080    0.6970 c3        1 MOL      0.488428
    104 C33        -2.5060   -0.3900   -0.6210 c         1 MOL      0.365332
    105 O16        -2.6510   -1.4000   -1.2420 o         1 MOL     -0.459528
    106 C34        -1.4260   -1.5110    1.4150 c3        1 MOL     -0.007104
    107 C35        -0.4030   -2.3470    0.6660 c         1 MOL      0.649890
    108 O17         0.0300   -1.9720   -0.4470 o         1 MOL     -0.684759
    109 O18         0.0220   -3.3590    1.2550 o         1 MOL     -0.684759
    110 H47        -3.2260    0.6400    2.0170 hn        1 MOL      0.315890
    111 H48        -0.6990    0.1770    0.4500 h1        1 MOL     -0.004983
    112 H49        -2.2960   -2.1610    1.5580 hc        1 MOL     -0.047540
    113 H50        -0.9650   -1.3250    2.3900 hc        1 MOL     -0.047540
    114 N11        -3.1780    0.6590   -1.0270 n         1 MOL     -0.413791
    115 C36        -4.3560    0.5160   -2.0020 c3        1 MOL      0.096622
    116 C37        -5.3300   -0.5160   -1.4400 c         1 MOL      0.206305
    117 O19        -5.7160   -0.3900   -0.2610 o         1 MOL     -0.488270
    118 C38        -5.1340    1.8450   -1.9120 c3        1 MOL     -0.187019
    119 C39        -6.5760    1.7980   -2.5490 ca        1 MOL      0.025603
    120 C40        -7.6240    1.6710   -1.6960 ca        1 MOL     -0.120059
    121 C41        -6.7280    1.8570   -3.9780 ca        1 MOL     -0.120059
    122 C42        -8.9160    1.5560   -2.2190 ca        1 MOL     -0.119370
    123 C43        -8.0180    1.7220   -4.5280 ca        1 MOL     -0.119370
    124 C44        -9.1270    1.5690   -3.6560 ca        1 MOL     -0.141798
    125 H51        -3.0550    1.5310   -0.5450 hn        1 MOL      0.250743
    126 H52        -3.9740    0.3310   -3.0080 h1        1 MOL      0.113448
    127 H53        -4.5660    2.5430   -2.5270 hc        1 MOL      0.103114
    128 H54        -5.2480    2.3870   -0.9700 hc        1 MOL      0.103114
    129 H55        -7.4110    1.6250   -0.6440 ha        1 MOL      0.119472
    130 H56        -5.9310    1.9480   -4.7110 ha        1 MOL      0.119472
    131 H57        -9.7440    1.4260   -1.5350 ha        1 MOL      0.108423
    132 H58        -8.2370    1.8090   -5.5830 ha        1 MOL      0.108423
    133 H59       -10.1230    1.4800   -4.0740 ha        1 MOL      0.106004
    134 N12        -5.7140   -1.5990   -2.1400 n         1 MOL      0.072335
    135 C45        -6.7910   -2.4150   -1.6520 c3        1 MOL      0.096183
    136 C46        -6.3620   -3.4360   -0.6320 c         1 MOL      0.247433
    137 O20        -7.1650   -3.8050    0.2260 o         1 MOL     -0.522675
    138 C47        -7.3860   -2.9960   -2.8880 c3        1 MOL      0.049637
    139 C48        -6.9190   -2.2670   -4.1450 c3        1 MOL      0.094436
    140 C49        -5.5150   -1.8750   -3.5840 c3        1 MOL     -0.149459
    141 H60        -7.5210   -1.7360   -1.2100 h1        1 MOL      0.060877
    142 H61        -6.9420   -3.9930   -2.9210 hc        1 MOL     -0.022295
    143 H62        -8.4760   -3.0180   -2.9610 hc        1 MOL     -0.022295
    144 H63        -6.8220   -2.9270   -5.0070 hc        1 MOL     -0.013811
    145 H64        -7.5230   -1.4010   -4.4400 hc        1 MOL     -0.013811
    146 H65        -4.9070   -2.7730   -3.6610 h1        1 MOL      0.056156
    147 H66        -5.1000   -1.0850   -4.2080 h1        1 MOL      0.056156
    148 N13        -5.1000   -3.9420   -0.6830 n         1 MOL     -0.080370
    149 C50        -4.5060   -4.9870    0.1870 c3        1 MOL     -0.157285
    150 C51        -4.7510   -4.8160    1.6860 c         1 MOL      0.460212
    151 O21        -4.8750   -5.8080    2.4260 o         1 MOL     -0.568177
    152 C52        -2.9750   -5.1230   -0.0320 c3        1 MOL      0.031166
    153 C53        -2.4180   -5.4520   -1.4300 c3        1 MOL     -0.074790
    154 C54        -0.8840   -5.2820   -1.4820 c         1 MOL      0.646214
    155 O22        -0.1520   -5.8490   -0.6500 o         1 MOL     -0.694335
    156 O23        -0.3760   -4.5340   -2.3450 o         1 MOL     -0.694335
    157 H67        -4.5870   -3.7510   -1.5280 hn        1 MOL      0.190418
    158 H68        -4.9520   -5.9230   -0.1460 h1        1 MOL      0.092380
    159 H69        -2.4980   -5.8480    0.6180 hc        1 MOL      0.035496
    160 H70        -2.6350   -4.1080    0.2070 hc        1 MOL      0.035496
    161 H71        -2.8730   -4.7530   -2.1310 hc        1 MOL     -0.011178
    162 H72        -2.6950   -6.4560   -1.7590 hc        1 MOL     -0.011178
    163 N14        -4.9880   -3.6330    2.1640 n         1 MOL     -0.085455
    164 C55        -5.2790   -3.3230    3.5820 c3        1 MOL     -0.228485
    165 H73        -5.6210   -4.2270    4.0870 h1        1 MOL      0.090869
    166 H74        -4.3740   -2.9570    4.0680 h1        1 MOL      0.090869
    167 H75        -6.0550   -2.5610    3.6370 h1        1 MOL      0.090869
    168 H76        -4.8160   -2.8100    1.5940 hn        1 MOL      0.200553
    169 Ca1         1.7280   -3.9330   -0.7240 Ca        1 MOL      1.652247
    170 O24         2.8170   -1.4520    0.3050 oh        1 MOL     -0.780328
    171 H77         2.0660   -0.8610    0.3290 ho        1 MOL      0.383556
    172 H78         3.5430   -0.9130   -0.0210 ho        1 MOL      0.383556
    173 O25         2.2790   -5.3010    1.6120 oh        1 MOL     -0.780328
    174 H79         1.8930   -5.4650    2.4780 ho        1 MOL      0.383556
    175 H80         3.0680   -5.8290    1.5970 ho        1 MOL      0.383556
    176 O26         4.2330   -4.1220   -0.3910 oh        1 MOL     -0.780328
    177 H81         4.6260   -4.5130    0.3920 ho        1 MOL      0.383556
    178 H82         4.9740   -4.0000   -0.9890 ho        1 MOL      0.383556
    179 O27         2.5910   -6.6500   -1.0100 oh        1 MOL     -0.780328
    180 H83         2.3860   -7.1160   -1.8270 ho        1 MOL      0.383556
    181 H84         3.5310   -6.7950   -0.8810 ho        1 MOL      0.383556
@<TRIPOS>BOND
     1    1    2 1   
     2    1    4 1   
     3    1    5 1   
     4    1    6 1   
     5    2    3 2   
     6    2    7 1   
     7    7    8 1   
     8    7   15 1   
     9    8    9 1   
    10    8   11 1   
    11    8   16 1   
    12    9   10 2   
    13    9   19 1   
    14   11   12 1   
    15   11   17 1   
    16   11   18 1   
    17   12   13 1   
    18   12   14 1   
    19   19   20 1   
    20   19   24 1   
    21   20   21 1   
    22   20   23 1   
    23   20   25 1   
    24   21   22 2   
    25   21   29 1   
    26   23   26 1   
    27   23   27 1   
    28   23   28 1   
    29   29   30 1   
    30   29   37 1   
    31   30   31 1   
    32   30   33 1   
    33   30   38 1   
    34   31   32 2   
    35   31   41 1   
    36   33   34 1   
    37   33   39 1   
    38   33   40 1   
    39   34   35 1   
    40   34   36 1   
    41   41   42 1   
    42   41   45 1   
    43   42   43 1   
    44   42   46 1   
    45   42   47 1   
    46   43   44 2   
    47   43   48 1   
    48   48   49 1   
    49   48   56 1   
    50   49   50 1   
    51   49   52 1   
    52   49   57 1   
    53   50   51 2   
    54   50   62 1   
    55   52   53 1   
    56   52   58 1   
    57   52   59 1   
    58   53   54 1   
    59   53   55 2   
    60   54   60 1   
    61   54   61 1   
    62   62   63 1   
    63   62   66 1   
    64   63   64 1   
    65   63   67 1   
    66   63   68 1   
    67   64   65 2   
    68   64   69 1   
    69   69   70 1   
    70   69   76 1   
    71   70   71 1   
    72   70   73 1   
    73   70   77 1   
    74   71   72 2   
    75   71   83 1   
    76   73   74 1   
    77   73   75 1   
    78   73   78 1   
    79   74   80 1   
    80   74   81 1   
    81   74   82 1   
    82   75   79 1   
    83   83   84 1   
    84   83   91 1   
    85   84   85 1   
    86   84   87 1   
    87   84   92 1   
    88   85   86 2   
    89   85  102 1   
    90   87   88 1   
    91   87   89 1   
    92   87   93 1   
    93   88   90 1   
    94   88   94 1   
    95   88   95 1   
    96   89   96 1   
    97   89   97 1   
    98   89   98 1   
    99   90   99 1   
   100   90  100 1   
   101   90  101 1   
   102  102  103 1   
   103  102  110 1   
   104  103  104 1   
   105  103  106 1   
   106  103  111 1   
   107  104  105 2   
   108  104  114 1   
   109  106  107 1   
   110  106  112 1   
   111  106  113 1   
   112  107  108 1   
   113  107  109 1   
   114  114  115 1   
   115  114  125 1   
   116  115  116 1   
   117  115  118 1   
   118  115  126 1   
   119  116  117 2   
   120  116  134 1   
   121  118  119 1   
   122  118  127 1   
   123  118  128 1   
   124  119  120 ar  
   125  119  121 ar  
   126  120  122 ar  
   127  120  129 1   
   128  121  123 ar  
   129  121  130 1   
   130  122  124 ar  
   131  122  131 1   
   132  123  124 ar  
   133  123  132 1   
   134  124  133 1   
   135  134  135 1   
   136  134  140 1   
   137  135  136 1   
   138  135  138 1   
   139  135  141 1   
   140  136  137 2   
   141  136  148 1   
   142  138  139 1   
   143  138  142 1   
   144  138  143 1   
   145  139  140 1   
   146  139  144 1   
   147  139  145 1   
   148  140  146 1   
   149  140  147 1   
   150  148  149 1   
   151  148  157 1   
   152  149  150 1   
   153  149  152 1   
   154  149  158 1   
   155  150  151 2   
   156  150  163 1   
   157  152  153 1   
   158  152  159 1   
   159  152  160 1   
   160  153  154 1   
   161  153  161 1   
   162  153  162 1   
   163  154  155 1   
   164  154  156 1   
   165  163  164 1   
   166  163  168 1   
   167  164  165 1   
   168  164  166 1   
   169  164  167 1   
   170  170  171 1   
   171  170  172 1   
   172  173  174 1   
   173  173  175 1   
   174  176  177 1   
   175  176  178 1   
   176  179  180 1   
   177  179  181 1   
@<TRIPOS>SUBSTRUCTURE
     1 MOL         1 TEMP              0 ****  ****    0 ROOT
