@<TRIPOS>MOLECULE
MOL
  179   176     1     0     0
SMALL
resp


@<TRIPOS>ATOM
      1 C1          1.5460   -4.2500    6.1930 c3        1 MOL     -0.502564
      2 C2          1.6050   -3.8810    4.7230 c         1 MOL      0.808533
      3 O1          0.6270   -4.0650    3.9860 o         1 MOL     -0.659867
      4 H1          2.5510   -4.4730    6.5510 hc        1 MOL      0.141179
      5 H2          1.1340   -3.4170    6.7620 hc        1 MOL      0.141179
      6 H3          0.9130   -5.1280    6.3220 hc        1 MOL      0.141179
      7 N1          2.7290   -3.3420    4.2690 n         1 MOL     -0.625208
      8 C3          2.9120   -2.8860    2.9240 c3        1 MOL      0.076210
      9 C4          3.3310   -4.0360    1.9970 c         1 MOL      0.632225
     10 O2          4.3340   -4.7300    2.1900 o         1 MOL     -0.550977
     11 C5          3.8890   -1.6060    2.8830 c3        1 MOL     -0.005112
     12 C6          3.7980   -0.9890    1.4810 c         1 MOL      0.418682
     13 O3          4.2290    0.1570    1.3810 o         1 MOL     -0.622660
     14 O4          3.4040   -1.6000    0.4360 o         1 MOL     -0.622660
     15 H4          3.5040   -3.2300    4.9040 hn        1 MOL      0.334468
     16 H5          1.9600   -2.4870    2.5590 h1        1 MOL     -0.058656
     17 H6          4.9020   -2.0010    3.0040 hc        1 MOL      0.039348
     18 H7          3.6480   -0.9430    3.7150 hc        1 MOL      0.039348
     19 N2          2.4270   -4.2310    1.0260 n         1 MOL     -0.294319
     20 C7          2.5750   -5.2900   -0.0040 c3        1 MOL     -0.070743
     21 C8          3.9390   -5.1900   -0.8600 c         1 MOL      0.516428
     22 O5          4.3710   -6.1970   -1.3470 o         1 MOL     -0.543525
     23 C9          1.3030   -5.2300   -0.8770 c3        1 MOL     -0.133107
     24 C10         0.9780   -4.0430   -1.7200 c3        1 MOL      0.288840
     25 C11        -0.4200   -4.3330   -2.3110 c3        1 MOL     -0.204288
     26 C12        -1.0730   -3.0390   -2.8820 c3        1 MOL      0.036243
     27 N3         -2.3340   -3.4260   -3.5830 n4        1 MOL     -0.418303
     28 H8          1.7140   -3.5310    0.9510 hn        1 MOL      0.110964
     29 H9          2.5520   -6.2640    0.4870 h1        1 MOL      0.104197
     30 H10         0.5660   -5.2870   -0.0880 hc        1 MOL      0.045504
     31 H11         1.2600   -6.0960   -1.5280 hc        1 MOL      0.045504
     32 H12         1.6800   -3.9180   -2.5420 hc        1 MOL     -0.016766
     33 H13         0.9100   -3.1480   -1.1070 hc        1 MOL     -0.016766
     34 H14        -1.0720   -4.7210   -1.5280 hc        1 MOL      0.054080
     35 H15        -0.3430   -5.1130   -3.0700 hc        1 MOL      0.054080
     36 H16        -0.4110   -2.5980   -3.6320 hx        1 MOL      0.099447
     37 H17        -1.3450   -2.3710   -2.0710 hx        1 MOL      0.099447
     38 H18        -1.9700   -3.9610   -4.3630 hn        1 MOL      0.308698
     39 H19        -2.8790   -4.0910   -3.0470 hn        1 MOL      0.308698
     40 H20        -2.8470   -2.6060   -3.8490 hn        1 MOL      0.308698
     41 N4          4.4380   -3.9730   -1.0240 n         1 MOL     -0.051514
     42 C13         5.5930   -3.6130   -1.8830 c3        1 MOL      0.124497
     43 C14         6.7020   -2.8630   -1.1310 c         1 MOL      0.367899
     44 O6          7.8730   -3.1700   -1.4040 o         1 MOL     -0.525362
     45 C15         5.1410   -2.8260   -3.1140 c3        1 MOL     -0.246810
     46 C16         4.2510   -1.6910   -2.6890 c         1 MOL      0.726684
     47 O7          3.0310   -1.7090   -2.8190 o         1 MOL     -0.701015
     48 O8          4.7670   -0.6620   -2.1820 o         1 MOL     -0.701015
     49 H21         3.9670   -3.1830   -0.6010 hn        1 MOL     -0.280908
     50 H22         6.0310   -4.5590   -2.2040 h1        1 MOL      0.072104
     51 H23         4.4840   -3.5340   -3.6250 hc        1 MOL      0.082363
     52 H24         5.9200   -2.5270   -3.8180 hc        1 MOL      0.082363
     53 N5          6.3570   -2.0550   -0.1750 n         1 MOL     -0.128968
     54 C17         7.2730   -1.2670    0.6920 c3        1 MOL     -0.252048
     55 C18         7.5830    0.0960    0.2280 c         1 MOL      0.664559
     56 O9          8.4780    0.7290    0.7810 o         1 MOL     -0.614673
     57 H25         5.3810   -1.9270    0.0680 hn        1 MOL      0.283836
     58 H26         8.2250   -1.7850    0.7960 h1        1 MOL      0.119974
     59 H27         6.8770   -1.1310    1.7030 h1        1 MOL      0.119974
     60 N6          6.8900    0.5330   -0.8240 n         1 MOL     -0.323863
     61 C19         7.0100    1.9380   -1.3030 c3        1 MOL      0.051966
     62 C20         5.6990    2.7020   -1.2090 c         1 MOL      0.433179
     63 O10         4.6320    2.1000   -1.0890 o         1 MOL     -0.423815
     64 C21         7.4660    1.8800   -2.7880 c3        1 MOL     -0.227736
     65 C22         8.9180    1.4570   -2.9970 c         1 MOL      0.731744
     66 N7          9.8110    1.2430   -1.9910 n         1 MOL     -0.899559
     67 O11         9.2710    1.2420   -4.1480 o         1 MOL     -0.584329
     68 H28         6.2100   -0.0630   -1.2720 hn        1 MOL      0.213701
     69 H29         7.7670    2.5150   -0.7710 h1        1 MOL      0.030024
     70 H30         7.4600    2.8700   -3.2500 hc        1 MOL      0.067608
     71 H31         6.9230    1.1330   -3.3640 hc        1 MOL      0.067608
     72 H32         9.5560    1.3320   -1.0160 hn        1 MOL      0.402504
     73 H33        10.7140    0.8910   -2.2450 hn        1 MOL      0.402504
     74 N8          5.7570    4.0560   -1.2620 n         1 MOL     -0.342327
     75 C23         4.4750    4.8450   -1.1500 c3        1 MOL     -0.289625
     76 C24         3.5990    4.6270    0.0700 c         1 MOL      0.737746
     77 O12         4.0910    4.4980    1.1390 o         1 MOL     -0.478148
     78 H34         6.6800    4.4760   -1.2140 hn        1 MOL      0.321140
     79 H35         3.8980    4.5830   -2.0360 h1        1 MOL      0.123507
     80 H36         4.7380    5.8970   -1.2150 h1        1 MOL      0.123507
     81 N9          2.2180    4.8040   -0.1460 n         1 MOL     -0.617396
     82 C25         1.2790    4.5330    0.9350 c3        1 MOL      0.024009
     83 C26         1.1800    3.0860    1.2520 c         1 MOL      0.668454
     84 O13         1.8650    2.3190    0.5530 o         1 MOL     -0.639501
     85 C27        -0.1200    5.0890    0.4870 c3        1 MOL     -0.034047
     86 C28        -0.2080    6.6260    0.4930 ca        1 MOL      0.043727
     87 C29         0.0440    7.2850    1.7180 ca        1 MOL     -0.175594
     88 C30        -0.4710    7.2450   -0.7540 ca        1 MOL     -0.175594
     89 C31        -0.1220    8.6890    1.6750 ca        1 MOL     -0.220378
     90 C32        -0.5090    8.6400   -0.7910 ca        1 MOL     -0.220378
     91 C33        -0.2970    9.3440    0.4240 ca        1 MOL      0.288634
     92 O14        -0.6170   10.6150    0.3520 oh        1 MOL     -0.438789
     93 H37         1.7950    4.7890   -1.0650 hn        1 MOL      0.288796
     94 H38         1.7040    5.0610    1.7850 h1        1 MOL      0.093331
     95 H39        -0.8390    4.7760    1.2400 hc        1 MOL      0.023858
     96 H40        -0.5200    4.7050   -0.4600 hc        1 MOL      0.023858
     97 H41         0.2130    6.7340    2.6250 ha        1 MOL      0.142450
     98 H42        -0.5980    6.6940   -1.6800 ha        1 MOL      0.142450
     99 H43        -0.0770    9.2770    2.5860 ha        1 MOL      0.150922
    100 H44        -0.7370    9.1960   -1.6840 ha        1 MOL      0.150922
    101 H45        -0.8440   10.9390    1.2280 ho        1 MOL      0.356994
    102 N10         0.4180    2.6590    2.2840 n         1 MOL     -0.632373
    103 C34         0.0170    1.2670    2.7190 c3        1 MOL      0.164592
    104 C35        -0.3560    0.2090    1.5960 c         1 MOL      0.466251
    105 O15         0.2400    0.1690    0.5060 o         1 MOL     -0.546748
    106 C36         0.9430    0.5610    3.6900 c3        1 MOL      0.317539
    107 C37         0.2960   -0.5530    4.5600 c3        1 MOL     -0.087727
    108 C38         1.7010    1.5060    4.7020 c3        1 MOL     -0.339637
    109 C39        -0.8260   -0.1070    5.5480 c3        1 MOL     -0.511926
    110 H46        -0.0310    3.3890    2.8150 hn        1 MOL      0.330826
    111 H47        -0.9310    1.4340    3.2390 h1        1 MOL      0.004835
    112 H48         1.7110    0.1280    3.0550 hc        1 MOL      0.035476
    113 H49         1.0890   -0.9720    5.1760 hc        1 MOL      0.076654
    114 H50        -0.0800   -1.3500    3.9220 hc        1 MOL      0.076654
    115 H51         2.4430    2.1230    4.1820 hc        1 MOL      0.079568
    116 H52         1.0260    2.2080    5.1950 hc        1 MOL      0.079568
    117 H53         2.2620    0.8350    5.3560 hc        1 MOL      0.079568
    118 H54        -0.4200    0.6490    6.2250 hc        1 MOL      0.133647
    119 H55        -1.7120    0.2440    5.0220 hc        1 MOL      0.133647
    120 H56        -0.9240   -0.9770    6.2050 hc        1 MOL      0.133647
    121 N11        -1.4810   -0.5300    1.8380 n         1 MOL     -0.572242
    122 C40        -1.8080   -1.6200    0.9080 c3        1 MOL      0.216917
    123 C41        -3.2870   -1.6530    0.3780 c         1 MOL      0.454103
    124 O16        -3.6030   -2.4560   -0.4410 o         1 MOL     -0.512769
    125 C42        -1.5420   -2.9650    1.5560 c3        1 MOL      0.005321
    126 O17        -0.1570   -3.0110    1.6750 oh        1 MOL     -0.269056
    127 H57        -2.0620   -0.2150    2.6060 hn        1 MOL      0.347125
    128 H58        -1.2460   -1.6190   -0.0240 h1        1 MOL      0.061586
    129 H59        -1.8340   -3.8430    0.9850 h1        1 MOL      0.030630
    130 H60        -2.0210   -2.9300    2.5390 h1        1 MOL      0.030630
    131 H61         0.0650   -3.5560    2.4360 ho        1 MOL      0.356365
    132 N12        -4.1770   -0.7200    0.8550 n         1 MOL     -0.520888
    133 C43        -5.5310   -0.7230    0.2660 c3        1 MOL      0.192445
    134 C44        -5.5100   -0.3300   -1.2970 c         1 MOL      0.576596
    135 O18        -4.5500    0.3200   -1.7790 o         1 MOL     -0.589262
    136 C45        -6.4210    0.2060    1.1290 c3        1 MOL     -0.286682
    137 H62        -3.8750   -0.1020    1.5950 hn        1 MOL      0.279633
    138 H63        -5.9380   -1.7310    0.2320 h1        1 MOL      0.078136
    139 H64        -7.4720    0.0950    0.8460 hc        1 MOL      0.090398
    140 H65        -6.3170   -0.0190    2.1930 hc        1 MOL      0.090398
    141 H66        -6.1260    1.2050    0.8130 hc        1 MOL      0.090398
    142 N13        -6.4640   -0.7870   -2.1190 n         1 MOL     -0.597156
    143 C46        -7.7750   -1.4020   -1.8520 c3        1 MOL      0.449271
    144 C47        -8.8230   -0.8210   -2.7400 c         1 MOL      0.273282
    145 O19        -8.6260   -0.6070   -3.9520 o         1 MOL     -0.519390
    146 C48        -7.6780   -2.9210   -2.0920 c3        1 MOL     -0.458604
    147 H67        -6.3820   -0.3490   -3.0270 hn        1 MOL      0.307678
    148 H68        -7.9320   -1.1990   -0.7950 h1        1 MOL     -0.028378
    149 H69        -8.5870   -3.1750   -2.6430 hc        1 MOL      0.131431
    150 H70        -6.8160   -3.2000   -2.6890 hc        1 MOL      0.131431
    151 H71        -7.7170   -3.4100   -1.1210 hc        1 MOL      0.131431
    152 N14       -10.0370   -0.6110   -2.3370 n         1 MOL     -0.276999
    153 C49       -10.6970   -0.7920   -1.0340 c3        1 MOL     -0.161265
    154 C50       -10.1090    0.1890    0.0890 c         1 MOL      0.385694
    155 O20        -9.8730   -0.1880    1.2220 o         1 MOL     -0.505240
    156 C51       -12.2170   -0.4930   -1.2110 c3        1 MOL      0.162896
    157 C52       -12.8610   -0.7120    0.1630 c3        1 MOL     -0.417364
    158 C53       -14.3030   -0.2950    0.0630 c         1 MOL      0.733909
    159 O21       -14.7040    0.8710    0.3480 o         1 MOL     -0.676324
    160 O22       -15.1440   -1.0680   -0.4210 o         1 MOL     -0.676324
    161 H72       -10.5850   -0.2840   -3.1250 hn        1 MOL      0.265207
    162 H73       -10.5680   -1.8130   -0.6860 h1        1 MOL      0.127922
    163 H74       -12.7180   -1.1910   -1.8780 hc        1 MOL      0.019441
    164 H75       -12.3210    0.5250   -1.5850 hc        1 MOL      0.019441
    165 H76       -12.4010   -0.0160    0.8590 hc        1 MOL      0.113893
    166 H77       -12.8460   -1.7320    0.5510 hc        1 MOL      0.113893
    167 N15        -9.8660    1.4240   -0.2310 n         1 MOL     -0.206756
    168 C54        -9.2840    2.4580    0.6870 c3        1 MOL     -0.264665
    169 H78        -9.6870    2.3200    1.6900 h1        1 MOL      0.125355
    170 H79        -8.1990    2.3510    0.7150 h1        1 MOL      0.125355
    171 H80        -9.5430    3.4530    0.3260 h1        1 MOL      0.125355
    172 H81       -10.2800    1.6510   -1.1190 hn        1 MOL      0.234789
    173 Ca1         2.6810    0.4460   -1.1080 Ca        1 MOL      1.790932
    174 O23         0.3750    0.0870   -2.5850 oh        1 MOL     -0.911997
    175 H82         0.5640    0.8350   -3.1540 ho        1 MOL      0.434088
    176 H83        -0.5750    0.1160   -2.4550 ho        1 MOL      0.434088
    177 O24         2.5940    2.1900   -3.0890 oh        1 MOL     -0.911997
    178 H84         2.1750    3.0490   -3.1340 ho        1 MOL      0.434088
    179 H85         2.9640    2.0500   -3.9660 ho        1 MOL      0.434088
@<TRIPOS>BOND
     1    1    2 1   
     2    1    4 1   
     3    1    5 1   
     4    1    6 1   
     5    2    3 2   
     6    2    7 1   
     7    7    8 1   
     8    7   15 1   
     9    8    9 1   
    10    8   11 1   
    11    8   16 1   
    12    9   10 2   
    13    9   19 1   
    14   11   12 1   
    15   11   17 1   
    16   11   18 1   
    17   12   13 1   
    18   12   14 1   
    19   19   20 1   
    20   19   28 1   
    21   20   21 1   
    22   20   23 1   
    23   20   29 1   
    24   21   22 2   
    25   21   41 1   
    26   23   24 1   
    27   23   30 1   
    28   23   31 1   
    29   24   25 1   
    30   24   32 1   
    31   24   33 1   
    32   25   26 1   
    33   25   34 1   
    34   25   35 1   
    35   26   27 1   
    36   26   36 1   
    37   26   37 1   
    38   27   38 1   
    39   27   39 1   
    40   27   40 1   
    41   41   42 1   
    42   41   49 1   
    43   42   43 1   
    44   42   45 1   
    45   42   50 1   
    46   43   44 2   
    47   43   53 1   
    48   45   46 1   
    49   45   51 1   
    50   45   52 1   
    51   46   47 1   
    52   46   48 1   
    53   53   54 1   
    54   53   57 1   
    55   54   55 1   
    56   54   58 1   
    57   54   59 1   
    58   55   56 2   
    59   55   60 1   
    60   60   61 1   
    61   60   68 1   
    62   61   62 1   
    63   61   64 1   
    64   61   69 1   
    65   62   63 2   
    66   62   74 1   
    67   64   65 1   
    68   64   70 1   
    69   64   71 1   
    70   65   66 1   
    71   65   67 2   
    72   66   72 1   
    73   66   73 1   
    74   74   75 1   
    75   74   78 1   
    76   75   76 1   
    77   75   79 1   
    78   75   80 1   
    79   76   77 2   
    80   76   81 1   
    81   81   82 1   
    82   81   93 1   
    83   82   83 1   
    84   82   85 1   
    85   82   94 1   
    86   83   84 2   
    87   83  102 1   
    88   85   86 1   
    89   85   95 1   
    90   85   96 1   
    91   86   87 ar  
    92   86   88 ar  
    93   87   89 ar  
    94   87   97 1   
    95   88   90 ar  
    96   88   98 1   
    97   89   91 ar  
    98   89   99 1   
    99   90   91 ar  
   100   90  100 1   
   101   91   92 1   
   102   92  101 1   
   103  102  103 1   
   104  102  110 1   
   105  103  104 1   
   106  103  106 1   
   107  103  111 1   
   108  104  105 2   
   109  104  121 1   
   110  106  107 1   
   111  106  108 1   
   112  106  112 1   
   113  107  109 1   
   114  107  113 1   
   115  107  114 1   
   116  108  115 1   
   117  108  116 1   
   118  108  117 1   
   119  109  118 1   
   120  109  119 1   
   121  109  120 1   
   122  121  122 1   
   123  121  127 1   
   124  122  123 1   
   125  122  125 1   
   126  122  128 1   
   127  123  124 2   
   128  123  132 1   
   129  125  126 1   
   130  125  129 1   
   131  125  130 1   
   132  126  131 1   
   133  132  133 1   
   134  132  137 1   
   135  133  134 1   
   136  133  136 1   
   137  133  138 1   
   138  134  135 2   
   139  134  142 1   
   140  136  139 1   
   141  136  140 1   
   142  136  141 1   
   143  142  143 1   
   144  142  147 1   
   145  143  144 1   
   146  143  146 1   
   147  143  148 1   
   148  144  145 2   
   149  144  152 1   
   150  146  149 1   
   151  146  150 1   
   152  146  151 1   
   153  152  153 1   
   154  152  161 1   
   155  153  154 1   
   156  153  156 1   
   157  153  162 1   
   158  154  155 2   
   159  154  167 1   
   160  156  157 1   
   161  156  163 1   
   162  156  164 1   
   163  157  158 1   
   164  157  165 1   
   165  157  166 1   
   166  158  159 1   
   167  158  160 1   
   168  167  168 1   
   169  167  172 1   
   170  168  169 1   
   171  168  170 1   
   172  168  171 1   
   173  174  175 1   
   174  174  176 1   
   175  177  178 1   
   176  177  179 1   
@<TRIPOS>SUBSTRUCTURE
     1 MOL         1 TEMP              0 ****  ****    0 ROOT
