@<TRIPOS>MOLECULE
MOL
  185   180     1     0     0
SMALL
resp


@<TRIPOS>ATOM
      1 C1         -5.7760    0.7890   -3.4900 c3        1 MOL     -0.442918
      2 C2         -6.4650    1.1490   -2.2010 c         1 MOL      0.707646
      3 O1         -5.8070    1.0560   -1.1760 o         1 MOL     -0.482338
      4 H1         -5.5650   -0.2810   -3.5020 hc        1 MOL      0.111398
      5 H2         -6.4220    1.0410   -4.3310 hc        1 MOL      0.111398
      6 H3         -4.8410    1.3440   -3.5700 hc        1 MOL      0.111398
      7 N1         -7.7380    1.5290   -2.2490 n         1 MOL     -0.584751
      8 C3         -8.6270    1.6660   -1.0680 c3        1 MOL      0.074285
      9 C4         -8.3990    0.5900    0.0360 c         1 MOL      0.470406
     10 O2         -8.4270    0.9030    1.2290 o         1 MOL     -0.478509
     11 C5         -8.6950    3.1090   -0.5430 c3        1 MOL     -0.164301
     12 C6         -9.1220    4.0750   -1.5990 c         1 MOL      0.730904
     13 O3         -8.2940    4.6640   -2.3500 o         1 MOL     -0.673158
     14 O4        -10.3290    4.2150   -1.7660 o         1 MOL     -0.673158
     15 H4         -8.2750    1.6440   -3.1020 hn        1 MOL      0.363895
     16 H5         -9.6500    1.5510   -1.4370 h1        1 MOL      0.048666
     17 H6         -7.6950    3.3430   -0.1750 hc        1 MOL      0.042771
     18 H7         -9.3450    3.2230    0.3250 hc        1 MOL      0.042771
     19 N2         -8.1420   -0.7130   -0.2490 n         1 MOL     -0.449676
     20 C7         -7.8760   -1.8630    0.5830 c3        1 MOL      0.185452
     21 C8         -6.4630   -2.3510    0.4820 c         1 MOL      0.566625
     22 O5         -6.2470   -3.5470    0.5440 o         1 MOL     -0.603579
     23 C9         -8.9490   -3.0010    0.2710 c3        1 MOL     -0.089644
     24 C10       -10.4010   -2.5940    0.4960 c3        1 MOL     -0.065760
     25 C11       -11.4560   -3.2650   -0.4500 c3        1 MOL     -0.146703
     26 C12       -11.5950   -4.8320   -0.3010 c3        1 MOL      0.070016
     27 N3        -12.8260   -5.4460   -0.9200 n4        1 MOL     -0.200892
     28 H8         -8.0200   -0.9440   -1.2280 hn        1 MOL      0.194241
     29 H9         -8.0780   -1.4600    1.5730 h1        1 MOL      0.042730
     30 H10        -8.5980   -3.8690    0.8500 hc        1 MOL      0.034338
     31 H11        -8.7250   -3.2640   -0.7640 hc        1 MOL      0.034338
     32 H12       -10.4930   -1.5250    0.3100 hc        1 MOL      0.071479
     33 H13       -10.6320   -2.6500    1.5620 hc        1 MOL      0.071479
     34 H14       -11.0930   -3.0240   -1.4520 hc        1 MOL      0.070823
     35 H15       -12.3920   -2.7160   -0.3550 hc        1 MOL      0.070823
     36 H16       -11.6310   -5.0230    0.7790 hx        1 MOL      0.068595
     37 H17       -10.7410   -5.3720   -0.7210 hx        1 MOL      0.068595
     38 H18       -12.7950   -6.4420   -1.0640 hn        1 MOL      0.237798
     39 H19       -13.6470   -5.3260   -0.3450 hn        1 MOL      0.237798
     40 H20       -13.0100   -5.0970   -1.8560 hn        1 MOL      0.237798
     41 N4         -5.4780   -1.5030    0.2770 n         1 MOL     -0.451899
     42 C13        -4.0520   -1.9470    0.1750 c3        1 MOL      0.060197
     43 C14        -3.5690   -2.2810    1.5540 c         1 MOL      0.452661
     44 O6         -3.7120   -1.4630    2.4830 o         1 MOL     -0.502992
     45 C15        -3.2460   -0.8140   -0.4530 c3        1 MOL     -0.192797
     46 C16        -1.8170   -1.1310   -0.4180 c         1 MOL      0.790322
     47 O7         -1.0220   -0.7690    0.4480 o         1 MOL     -0.841971
     48 O8         -1.3450   -1.9270   -1.2800 o         1 MOL     -0.841971
     49 H21        -5.8150   -0.6270   -0.0940 hn        1 MOL      0.247512
     50 H22        -3.9650   -2.8490   -0.4400 h1        1 MOL      0.056958
     51 H23        -3.3260    0.1210    0.0940 hc        1 MOL      0.106394
     52 H24        -3.5240   -0.6080   -1.4890 hc        1 MOL      0.106394
     53 N5         -2.9400   -3.4310    1.7190 n         1 MOL     -0.040051
     54 C17        -2.3300   -4.0090    2.9170 c3        1 MOL     -0.478654
     55 C18        -1.4870   -3.1310    3.7570 c         1 MOL      0.734197
     56 O9         -1.2050   -3.4140    4.9050 o         1 MOL     -0.587800
     57 H25        -2.8330   -4.0070    0.8890 hn        1 MOL      0.165146
     58 H26        -1.6140   -4.7510    2.5730 h1        1 MOL      0.174617
     59 H27        -3.1450   -4.2910    3.5930 h1        1 MOL      0.174617
     60 N6         -0.9530   -2.0530    3.1880 n         1 MOL     -0.410800
     61 C19        -0.2930   -1.0050    3.9770 c3        1 MOL      0.011384
     62 C20        -0.6160    0.4880    3.6760 c         1 MOL      0.382138
     63 O10         0.1200    1.3720    4.0130 o         1 MOL     -0.486589
     64 C21         1.2680   -1.2310    3.9650 c3        1 MOL     -0.242742
     65 C22         2.0630   -0.9970    2.6900 c         1 MOL      0.610762
     66 N7          2.9860   -0.0340    2.8250 n         1 MOL     -0.753324
     67 O11         1.7880   -1.6630    1.6680 o         1 MOL     -0.583850
     68 H28        -1.0970   -1.8750    2.2120 hn        1 MOL      0.299692
     69 H29        -0.6940   -1.1930    4.9760 h1        1 MOL      0.103871
     70 H30         1.4310   -2.2730    4.2430 hc        1 MOL      0.090673
     71 H31         1.7210   -0.5940    4.7290 hc        1 MOL      0.090673
     72 H32         3.1230    0.6300    3.5700 hn        1 MOL      0.371600
     73 H33         3.4950    0.0840    1.9570 hn        1 MOL      0.371600
     74 N8         -1.7990    0.7130    3.1140 n         1 MOL     -0.071287
     75 C23        -2.2360    2.0730    2.8410 c3        1 MOL     -0.323762
     76 C24        -1.3170    2.7810    1.7810 c         1 MOL      0.497864
     77 O12        -1.1340    4.0250    1.8940 o         1 MOL     -0.538658
     78 H34        -2.4780   -0.0250    2.9970 hn        1 MOL      0.135605
     79 H35        -2.1370    2.6000    3.7960 h1        1 MOL      0.151304
     80 H36        -3.2720    2.1060    2.5040 h1        1 MOL      0.151304
     81 N9         -0.6770    2.1180    0.8230 n         1 MOL     -0.361267
     82 C25         0.1100    2.7120   -0.3010 c3        1 MOL      0.036566
     83 C26         1.4030    1.9210   -0.6520 c         1 MOL      0.453303
     84 O13         1.3530    0.7080   -0.5480 o         1 MOL     -0.475916
     85 C27        -0.7170    2.8400   -1.5650 c3        1 MOL      0.059929
     86 C28        -1.7740    3.9510   -1.4690 ca        1 MOL     -0.183386
     87 C29        -1.2720    5.2660   -1.5250 ca        1 MOL     -0.033389
     88 C30        -3.0690    3.6880   -1.0630 ca        1 MOL     -0.033389
     89 C31        -2.1390    6.2990   -1.1380 ca        1 MOL     -0.259709
     90 C32        -3.9430    4.7720   -0.7770 ca        1 MOL     -0.259709
     91 C33        -3.4920    6.1100   -0.7610 ca        1 MOL      0.388312
     92 O14        -4.1750    7.2100   -0.3290 oh        1 MOL     -0.526475
     93 H37        -0.9960    1.1620    0.8600 hn        1 MOL      0.311538
     94 H38         0.3800    3.7410   -0.0750 h1        1 MOL      0.047356
     95 H39        -1.1730    1.8670   -1.7280 hc        1 MOL      0.005733
     96 H40         0.0190    3.0460   -2.3390 hc        1 MOL      0.005733
     97 H41        -0.3040    5.4860   -1.9590 ha        1 MOL      0.088141
     98 H42        -3.3770    2.6640   -0.9410 ha        1 MOL      0.088141
     99 H43        -1.8430    7.3410   -1.1310 ha        1 MOL      0.138464
    100 H44        -4.9570    4.5650   -0.4800 ha        1 MOL      0.138464
    101 H45        -4.8580    6.9370    0.2900 ho        1 MOL      0.404115
    102 N10         2.3830    2.6410   -1.1450 n         1 MOL     -0.489112
    103 C34         3.6700    2.0030   -1.2990 c3        1 MOL      0.548227
    104 C35         4.3140    1.9670    0.1320 c         1 MOL      0.049248
    105 O15         4.6520    0.8960    0.6640 o         1 MOL     -0.275959
    106 C36         4.5710    2.7600   -2.3040 c3        1 MOL     -0.214040
    107 C37         3.9290    2.8390   -3.7440 c3        1 MOL     -0.089496
    108 C38         5.8680    1.9570   -2.4430 c3        1 MOL     -0.008133
    109 C39         3.6200    1.5560   -4.5660 c3        1 MOL     -0.133799
    110 H46         2.2120    3.6230   -1.2730 hn        1 MOL      0.310018
    111 H47         3.5500    1.0030   -1.7280 h1        1 MOL     -0.075196
    112 H48         4.8940    3.7330   -1.9540 hc        1 MOL      0.038143
    113 H49         4.6850    3.3220   -4.3690 hc        1 MOL      0.046835
    114 H50         3.0780    3.5150   -3.7360 hc        1 MOL      0.046835
    115 H51         6.3200    1.7230   -1.4800 hc        1 MOL      0.008375
    116 H52         5.5850    0.9660   -2.8210 hc        1 MOL      0.008375
    117 H53         6.6700    2.3140   -3.0740 hc        1 MOL      0.008375
    118 H54         2.8130    1.0180   -4.0720 hc        1 MOL      0.060368
    119 H55         3.2700    1.8370   -5.5610 hc        1 MOL      0.060368
    120 H56         4.4980    0.9240   -4.6610 hc        1 MOL      0.060368
    121 N11         4.3450    3.1250    0.7910 n         1 MOL     -0.137150
    122 C40         5.0290    3.4430    2.0460 c3        1 MOL     -0.311886
    123 C41         6.5460    3.1200    2.0270 c         1 MOL      0.468861
    124 O16         7.1570    2.6220    2.9930 o         1 MOL     -0.445175
    125 C42         4.7870    4.9430    2.2350 c3        1 MOL      0.379187
    126 O17         3.4130    5.2010    2.3950 oh        1 MOL     -0.599047
    127 H57         3.8960    3.9000    0.3240 hn        1 MOL      0.193351
    128 H58         4.5470    3.0040    2.9180 h1        1 MOL      0.144590
    129 H59         5.2340    5.4670    1.3870 h1        1 MOL      0.010616
    130 H60         5.2940    5.3720    3.0970 h1        1 MOL      0.010616
    131 H61         3.0520    4.4270    2.8320 ho        1 MOL      0.400582
    132 N12         7.1370    3.3610    0.8010 n         1 MOL     -0.473485
    133 C43         8.3750    2.6860    0.3190 c3        1 MOL      0.174158
    134 C44         8.5180    1.1430    0.5410 c         1 MOL      0.366598
    135 O18         9.5960    0.5760    0.4920 o         1 MOL     -0.516474
    136 C45         9.5850    3.5240    0.8000 c3        1 MOL     -0.594379
    137 H62         6.7400    4.0680    0.1930 hn        1 MOL      0.299145
    138 H63         8.3110    2.9140   -0.7470 h1        1 MOL      0.099795
    139 H64        10.4260    3.2860    0.1540 hc        1 MOL      0.173333
    140 H65         9.4510    4.5950    0.6770 hc        1 MOL      0.173333
    141 H66         9.7270    3.3880    1.8740 hc        1 MOL      0.173333
    142 N13         7.4500    0.4190    0.8070 n         1 MOL     -0.053466
    143 C46         7.4360   -1.0810    0.9990 c3        1 MOL      0.080498
    144 C47         7.1790   -1.9410   -0.2180 c         1 MOL      0.361426
    145 O19         6.6300   -1.3780   -1.1730 o         1 MOL     -0.452922
    146 C48         6.4680   -1.4110    2.0890 c3        1 MOL     -0.186164
    147 H67         6.5820    0.8410    1.0900 hn        1 MOL      0.143369
    148 H68         8.4230   -1.3650    1.3670 h1        1 MOL      0.033908
    149 H69         6.6370   -2.4720    2.2870 hc        1 MOL      0.050506
    150 H70         6.6570   -0.8050    2.9720 hc        1 MOL      0.050506
    151 H71         5.4300   -1.2140    1.8660 hc        1 MOL      0.050506
    152 N14         7.4670   -3.2700   -0.1130 n         1 MOL     -0.543508
    153 C49         7.2930   -4.3230   -1.1500 c3        1 MOL     -0.101886
    154 C50         8.1220   -4.0220   -2.4370 c         1 MOL      0.441925
    155 O20         8.1000   -4.9500   -3.2660 o         1 MOL     -0.511237
    156 C51         5.8080   -4.4740   -1.4880 c3        1 MOL      0.365861
    157 C52         4.9380   -4.8790   -0.3520 c3        1 MOL     -0.332550
    158 C53         3.4350   -4.7300   -0.7040 c         1 MOL      0.825376
    159 O21         2.9270   -5.4790   -1.5700 o         1 MOL     -0.744299
    160 O22         2.7990   -3.7790   -0.2380 o         1 MOL     -0.744299
    161 H72         7.9500   -3.5540    0.7230 hn        1 MOL      0.357679
    162 H73         7.7640   -5.1870   -0.7010 h1        1 MOL      0.130576
    163 H74         5.7410   -5.2610   -2.2380 hc        1 MOL     -0.043813
    164 H75         5.4160   -3.5410   -1.8900 hc        1 MOL     -0.043813
    165 H76         5.2780   -4.3180    0.5180 hc        1 MOL      0.048302
    166 H77         5.1670   -5.9220   -0.1070 hc        1 MOL      0.048302
    167 N15         8.8840   -2.9390   -2.5950 n         1 MOL     -0.331225
    168 C54         9.4580   -2.5050   -3.8830 c3        1 MOL     -0.107169
    169 H78         9.5590   -3.3660   -4.5450 h1        1 MOL      0.085948
    170 H79         8.8010   -1.7690   -4.3450 h1        1 MOL      0.085948
    171 H80        10.4400   -2.0610   -3.7140 h1        1 MOL      0.085948
    172 H81         8.9590   -2.2570   -1.8500 hn        1 MOL      0.280306
    173 Ca1         1.1380   -1.8740   -0.8280 Ca        1 MOL      1.813878
    174 O23         3.8150   -1.1870   -0.7680 oh        1 MOL     -0.853110
    175 H82         4.4650   -1.8870   -0.8170 ho        1 MOL      0.409293
    176 H83         4.2750   -0.4540   -0.3630 ho        1 MOL      0.409293
    177 O24         0.9940   -4.0400   -2.6520 oh        1 MOL     -0.853110
    178 H84         0.5810   -4.4500   -3.4140 ho        1 MOL      0.409293
    179 H85         1.4340   -4.7610   -2.2070 ho        1 MOL      0.409293
    180 O25         0.0190   -4.0280    0.0930 oh        1 MOL     -0.853110
    181 H86        -0.7770   -4.1380   -0.4360 ho        1 MOL      0.409293
    182 H87         0.3380   -4.9160    0.2260 ho        1 MOL      0.409293
    183 O26         0.7830   -1.1070   -3.4320 oh        1 MOL     -0.853110
    184 H88         0.5930   -1.8280   -4.0370 ho        1 MOL      0.409293
    185 H89         0.2520   -0.3890   -3.7530 ho        1 MOL      0.409293
@<TRIPOS>BOND
     1    1    2 1   
     2    1    4 1   
     3    1    5 1   
     4    1    6 1   
     5    2    3 2   
     6    2    7 1   
     7    7    8 1   
     8    7   15 1   
     9    8    9 1   
    10    8   11 1   
    11    8   16 1   
    12    9   10 2   
    13    9   19 1   
    14   11   12 1   
    15   11   17 1   
    16   11   18 1   
    17   12   13 1   
    18   12   14 1   
    19   19   20 1   
    20   19   28 1   
    21   20   21 1   
    22   20   23 1   
    23   20   29 1   
    24   21   22 2   
    25   21   41 1   
    26   23   24 1   
    27   23   30 1   
    28   23   31 1   
    29   24   25 1   
    30   24   32 1   
    31   24   33 1   
    32   25   26 1   
    33   25   34 1   
    34   25   35 1   
    35   26   27 1   
    36   26   36 1   
    37   26   37 1   
    38   27   38 1   
    39   27   39 1   
    40   27   40 1   
    41   41   42 1   
    42   41   49 1   
    43   42   43 1   
    44   42   45 1   
    45   42   50 1   
    46   43   44 2   
    47   43   53 1   
    48   45   46 1   
    49   45   51 1   
    50   45   52 1   
    51   46   47 1   
    52   46   48 1   
    53   53   54 1   
    54   53   57 1   
    55   54   55 1   
    56   54   58 1   
    57   54   59 1   
    58   55   56 2   
    59   55   60 1   
    60   60   61 1   
    61   60   68 1   
    62   61   62 1   
    63   61   64 1   
    64   61   69 1   
    65   62   63 2   
    66   62   74 1   
    67   64   65 1   
    68   64   70 1   
    69   64   71 1   
    70   65   66 1   
    71   65   67 2   
    72   66   72 1   
    73   66   73 1   
    74   74   75 1   
    75   74   78 1   
    76   75   76 1   
    77   75   79 1   
    78   75   80 1   
    79   76   77 2   
    80   76   81 1   
    81   81   82 1   
    82   81   93 1   
    83   82   83 1   
    84   82   85 1   
    85   82   94 1   
    86   83   84 2   
    87   83  102 1   
    88   85   86 1   
    89   85   95 1   
    90   85   96 1   
    91   86   87 ar  
    92   86   88 ar  
    93   87   89 ar  
    94   87   97 1   
    95   88   90 ar  
    96   88   98 1   
    97   89   91 ar  
    98   89   99 1   
    99   90   91 ar  
   100   90  100 1   
   101   91   92 1   
   102   92  101 1   
   103  102  103 1   
   104  102  110 1   
   105  103  104 1   
   106  103  106 1   
   107  103  111 1   
   108  104  105 2   
   109  104  121 1   
   110  106  107 1   
   111  106  108 1   
   112  106  112 1   
   113  107  109 1   
   114  107  113 1   
   115  107  114 1   
   116  108  115 1   
   117  108  116 1   
   118  108  117 1   
   119  109  118 1   
   120  109  119 1   
   121  109  120 1   
   122  121  122 1   
   123  121  127 1   
   124  122  123 1   
   125  122  125 1   
   126  122  128 1   
   127  123  124 2   
   128  123  132 1   
   129  125  126 1   
   130  125  129 1   
   131  125  130 1   
   132  126  131 1   
   133  132  133 1   
   134  132  137 1   
   135  133  134 1   
   136  133  136 1   
   137  133  138 1   
   138  134  135 2   
   139  134  142 1   
   140  136  139 1   
   141  136  140 1   
   142  136  141 1   
   143  142  143 1   
   144  142  147 1   
   145  143  144 1   
   146  143  146 1   
   147  143  148 1   
   148  144  145 2   
   149  144  152 1   
   150  146  149 1   
   151  146  150 1   
   152  146  151 1   
   153  152  153 1   
   154  152  161 1   
   155  153  154 1   
   156  153  156 1   
   157  153  162 1   
   158  154  155 2   
   159  154  167 1   
   160  156  157 1   
   161  156  163 1   
   162  156  164 1   
   163  157  158 1   
   164  157  165 1   
   165  157  166 1   
   166  158  159 1   
   167  158  160 1   
   168  167  168 1   
   169  167  172 1   
   170  168  169 1   
   171  168  170 1   
   172  168  171 1   
   173  174  175 1   
   174  174  176 1   
   175  177  178 1   
   176  177  179 1   
   177  180  181 1   
   178  180  182 1   
   179  183  184 1   
   180  183  185 1   
@<TRIPOS>SUBSTRUCTURE
     1 MOL         1 TEMP              0 ****  ****    0 ROOT
