@<TRIPOS>MOLECULE
MOL
  181   177     1     0     0
SMALL
resp


@<TRIPOS>ATOM
      1 C1         -7.0780    6.6250    2.7130 c3        1 MOL     -0.422225
      2 C2         -6.0730    5.7800    1.9570 c         1 MOL      0.621716
      3 O1         -5.0270    6.2080    1.4300 o         1 MOL     -0.612626
      4 H1         -7.2010    6.2270    3.7210 hc        1 MOL      0.120230
      5 H2         -6.7190    7.6520    2.7710 hc        1 MOL      0.120230
      6 H3         -8.0360    6.6020    2.1950 hc        1 MOL      0.120230
      7 N1         -6.1980    4.4950    1.6860 n         1 MOL     -0.448568
      8 C3         -7.2350    3.5870    2.1540 c3        1 MOL      0.103011
      9 C4         -8.3180    3.3240    1.0660 c         1 MOL      0.378958
     10 O2         -9.3340    2.8020    1.4180 o         1 MOL     -0.503873
     11 C5         -6.6850    2.2740    2.6780 c3        1 MOL     -0.244215
     12 C6         -5.6100    1.6260    1.8050 c         1 MOL      0.843979
     13 O3         -4.3990    1.5310    2.2030 o         1 MOL     -0.797552
     14 O4         -5.8270    1.2940    0.6430 o         1 MOL     -0.797552
     15 H4         -5.4510    4.1630    1.0890 hn        1 MOL      0.326212
     16 H5         -7.6850    4.0460    3.0350 h1        1 MOL      0.065504
     17 H6         -7.4630    1.5670    2.9910 hc        1 MOL      0.073088
     18 H7         -6.1630    2.5430    3.5980 hc        1 MOL      0.073088
     19 N2         -8.0980    3.7190   -0.2000 n         1 MOL     -0.313084
     20 C7         -9.1140    3.6810   -1.2490 c3        1 MOL      0.082150
     21 C8         -9.2420    2.2530   -1.7690 c         1 MOL      0.451765
     22 O5        -10.3870    1.7630   -2.1060 o         1 MOL     -0.587759
     23 C9         -8.8720    4.6010   -2.3450 c3        1 MOL     -0.227908
     24 H8         -7.1890    4.0510   -0.4870 hn        1 MOL      0.254369
     25 H9        -10.1060    3.8640   -0.8390 h1        1 MOL      0.085959
     26 H10        -9.5730    4.6480   -3.1670 hc        1 MOL      0.063267
     27 H11        -8.7640    5.5880   -1.9040 hc        1 MOL      0.063267
     28 H12        -7.9010    4.4480   -2.8400 hc        1 MOL      0.063267
     29 N3         -8.1800    1.4580   -1.7260 n         1 MOL     -0.281893
     30 C10        -8.0080    0.1110   -2.2990 c3        1 MOL      0.227961
     31 C11        -8.0450   -1.0640   -1.3210 c         1 MOL      0.343069
     32 O6         -8.7580   -2.0980   -1.4410 o         1 MOL     -0.562951
     33 C12        -6.7840    0.0520   -3.1840 c3        1 MOL     -0.414278
     34 C13        -5.4700    0.4370   -2.5330 c         1 MOL      0.910732
     35 O7         -5.1830    1.6270   -2.4140 o         1 MOL     -0.794916
     36 O8         -4.6500   -0.4250   -2.1450 o         1 MOL     -0.794916
     37 H13        -7.3170    1.8750   -1.4120 hn        1 MOL      0.203379
     38 H14        -8.8550   -0.1320   -2.9410 h1        1 MOL      0.042950
     39 H15        -6.8910    0.8370   -3.9410 hc        1 MOL      0.081120
     40 H16        -6.7110   -0.9450   -3.6220 hc        1 MOL      0.081120
     41 N4         -7.2550   -0.9130   -0.2680 n         1 MOL     -0.046792
     42 C14        -7.2220   -1.7940    0.9390 c3        1 MOL     -0.219795
     43 C15        -5.7750   -2.2560    1.3020 c         1 MOL      0.656212
     44 O9         -4.8490   -1.4440    1.1080 o         1 MOL     -0.582208
     45 H17        -6.9190    0.0340   -0.1460 hn        1 MOL      0.177408
     46 H18        -7.6920   -2.7670    0.8080 h1        1 MOL      0.085939
     47 H19        -7.7050   -1.2870    1.7740 h1        1 MOL      0.085939
     48 N5         -5.6640   -3.4540    1.8510 n         1 MOL     -0.478565
     49 C16        -4.4400   -4.0770    2.2930 c3        1 MOL     -0.034322
     50 C17        -3.4080   -4.1690    1.1780 c         1 MOL      0.725577
     51 O10        -3.6150   -4.9540    0.2630 o         1 MOL     -0.570074
     52 C18        -4.6990   -5.3720    2.9540 c3        1 MOL     -0.342577
     53 C19        -5.3340   -5.1440    4.3160 c         1 MOL      0.739880
     54 N6         -5.9820   -6.1480    4.8200 n         1 MOL     -0.806988
     55 O11        -5.2660   -4.0890    4.9410 o         1 MOL     -0.567134
     56 H20        -6.4570   -4.0520    2.0380 hn        1 MOL      0.310394
     57 H21        -4.0460   -3.4090    3.0660 h1        1 MOL      0.085908
     58 H22        -3.8260   -5.9740    3.1970 hc        1 MOL      0.112716
     59 H23        -5.3950   -5.9300    2.3250 hc        1 MOL      0.112716
     60 H24        -6.1930   -7.0220    4.3450 hn        1 MOL      0.357255
     61 H25        -6.2500   -6.0100    5.7900 hn        1 MOL      0.357255
     62 N7         -2.2280   -3.5240    1.2460 n         1 MOL     -0.543728
     63 C20        -1.2740   -3.4830    0.1920 c3        1 MOL      0.045255
     64 C21        -1.8340   -2.7330   -1.0950 c         1 MOL      0.673785
     65 O12        -2.5410   -1.7410   -1.0070 o         1 MOL     -0.584668
     66 H26        -1.9930   -2.9810    2.0690 hn        1 MOL      0.299748
     67 H27        -1.0100   -4.5330    0.0140 h1        1 MOL      0.091605
     68 H28        -0.4000   -2.9340    0.5280 h1        1 MOL      0.091605
     69 N8         -1.4910   -3.1560   -2.3240 n         1 MOL     -0.461413
     70 C22        -0.6720   -4.3710   -2.5120 c3        1 MOL     -0.200653
     71 C23         0.7670   -4.0740   -2.0660 c         1 MOL      0.509314
     72 O13         1.4370   -5.0730   -1.6790 o         1 MOL     -0.555172
     73 C24        -0.7900   -4.9110   -3.9630 c3        1 MOL      0.414345
     74 C25        -2.2320   -5.3780   -4.2950 c3        1 MOL     -0.504454
     75 O14        -0.3500   -3.8890   -4.8370 oh        1 MOL     -0.625711
     76 H29        -1.6810   -2.6250   -3.1590 hn        1 MOL      0.362559
     77 H30        -0.9540   -5.2130   -1.8680 h1        1 MOL      0.114715
     78 H31        -0.1430   -5.7790   -4.0200 h1        1 MOL      0.002590
     79 H32        -0.6660   -4.2010   -5.6930 ho        1 MOL      0.388952
     80 H33        -2.9380   -4.5890   -4.5840 hc        1 MOL      0.128913
     81 H34        -2.1030   -6.1270   -5.0800 hc        1 MOL      0.128913
     82 H35        -2.5990   -5.8510   -3.3900 hc        1 MOL      0.128913
     83 N9          1.2550   -2.8530   -2.0850 n         1 MOL     -0.308710
     84 C26         2.4220   -2.4710   -1.1890 c3        1 MOL     -0.022724
     85 C27         1.9740   -1.4030   -0.1060 c         1 MOL      0.313408
     86 O15         0.9000   -0.8240   -0.2620 o         1 MOL     -0.574020
     87 C28         3.7060   -1.9910   -1.9900 c3        1 MOL      0.123475
     88 C29         3.5920   -0.5690   -2.5940 c3        1 MOL      0.042051
     89 C30         4.3060   -3.0070   -2.9580 c3        1 MOL     -0.239097
     90 C31         4.9360    0.0360   -3.0560 c3        1 MOL     -0.266539
     91 H36         0.6510   -2.1090   -2.4070 hn        1 MOL      0.254034
     92 H37         2.6730   -3.3520   -0.6120 h1        1 MOL      0.112668
     93 H38         4.5440   -1.8740   -1.3000 hc        1 MOL      0.021178
     94 H39         3.1630    0.1370   -1.8880 hc        1 MOL      0.028830
     95 H40         2.9280   -0.6360   -3.4480 hc        1 MOL      0.028830
     96 H41         4.6130   -3.8810   -2.3880 hc        1 MOL      0.046743
     97 H42         3.5460   -3.2970   -3.6860 hc        1 MOL      0.046743
     98 H43         5.1780   -2.5570   -3.4260 hc        1 MOL      0.046743
     99 H44         5.1440   -0.1740   -4.1030 hc        1 MOL      0.059115
    100 H45         4.7690    1.1170   -3.1500 hc        1 MOL      0.059115
    101 H46         5.7360   -0.3440   -2.4160 hc        1 MOL      0.059115
    102 N10         2.7600   -1.0510    0.9210 n         1 MOL     -0.124243
    103 C32         4.0190   -1.6460    1.2680 c3        1 MOL      0.019158
    104 C33         5.2700   -0.7030    1.2620 c         1 MOL      0.502192
    105 O16         5.2000    0.4860    1.5560 o         1 MOL     -0.489158
    106 C34         3.8130   -2.2320    2.7060 c3        1 MOL     -0.133087
    107 C35         2.5550   -3.1410    2.9080 c         1 MOL      0.676926
    108 O17         2.3980   -3.9560    1.9660 o         1 MOL     -0.701459
    109 O18         1.7730   -2.9420    3.8890 o         1 MOL     -0.701459
    110 H47         2.4180   -0.2490    1.4410 hn        1 MOL      0.267715
    111 H48         4.2300   -2.5320    0.6640 h1        1 MOL      0.047626
    112 H49         3.6610   -1.3230    3.2860 hc        1 MOL     -0.015044
    113 H50         4.6820   -2.7660    3.0820 hc        1 MOL     -0.015044
    114 N11         6.3640   -1.3560    1.0700 n         1 MOL     -0.504202
    115 C36         7.7230   -0.9320    1.0120 c3        1 MOL      0.221413
    116 C37         7.9380   -0.5370   -0.4580 c         1 MOL      0.185553
    117 O19         7.8620   -1.3990   -1.3170 o         1 MOL     -0.449969
    118 C38         8.6680   -1.9420    1.6220 c3        1 MOL     -0.136621
    119 C39        10.1110   -1.6100    1.3650 ca        1 MOL     -0.025876
    120 C40        10.7660   -0.6130    2.1580 ca        1 MOL     -0.072457
    121 C41        10.8590   -2.2340    0.3140 ca        1 MOL     -0.072457
    122 C42        12.1340   -0.2890    2.0250 ca        1 MOL     -0.156836
    123 C43        12.1780   -1.8690    0.1200 ca        1 MOL     -0.156836
    124 C44        12.8440   -0.9190    0.9550 ca        1 MOL     -0.105437
    125 H51         6.1590   -2.3450    1.0850 hn        1 MOL      0.287504
    126 H52         7.7870   -0.0450    1.6310 h1        1 MOL      0.070866
    127 H53         8.4600   -2.9500    1.2810 hc        1 MOL      0.086194
    128 H54         8.4840   -2.1310    2.6820 hc        1 MOL      0.086194
    129 H55        10.2440   -0.1900    3.0070 ha        1 MOL      0.107583
    130 H56        10.4260   -3.0390   -0.2660 ha        1 MOL      0.107583
    131 H57        12.6270    0.3380    2.7510 ha        1 MOL      0.117175
    132 H58        12.7940   -2.3910   -0.5910 ha        1 MOL      0.117175
    133 H59        13.8980   -0.7530    0.7650 ha        1 MOL      0.099850
    134 N12         8.3890    0.7140   -0.7340 n         1 MOL      0.014200
    135 C45         8.7520    1.7700    0.2820 c3        1 MOL      0.283988
    136 C46         7.5630    2.6690    0.7170 c         1 MOL      0.057653
    137 O20         7.5380    3.0170    1.9110 o         1 MOL     -0.472743
    138 C47         9.7950    2.6430   -0.4350 c3        1 MOL     -0.151449
    139 C48         9.3540    2.5570   -1.8970 c3        1 MOL      0.033454
    140 C49         8.9920    1.0710   -2.0100 c3        1 MOL     -0.080095
    141 H60         9.2280    1.2130    1.0900 h1        1 MOL     -0.037355
    142 H61         9.7760    3.6980   -0.1450 hc        1 MOL      0.048729
    143 H62        10.7750    2.1740   -0.3070 hc        1 MOL      0.048729
    144 H63         8.4790    3.1650   -2.1000 hc        1 MOL      0.002656
    145 H64        10.1700    2.8120   -2.5690 hc        1 MOL      0.002656
    146 H65         8.4180    0.8050   -2.8890 h1        1 MOL      0.055186
    147 H66         9.9380    0.5440   -2.1320 h1        1 MOL      0.055186
    148 N13         6.6340    3.0600   -0.1790 n         1 MOL      0.022460
    149 C50         5.7020    4.1230    0.0570 c3        1 MOL      0.197334
    150 C51         6.3950    5.4780   -0.1470 c         1 MOL      0.312115
    151 O21         6.5720    6.0200   -1.2380 o         1 MOL     -0.551770
    152 C52         4.4080    3.9900   -0.7810 c3        1 MOL     -0.117565
    153 C53         3.4870    2.7580   -0.5170 c3        1 MOL     -0.052705
    154 C54         2.1550    2.8320   -1.3130 c         1 MOL      0.747375
    155 O22         2.0650    2.4430   -2.5320 o         1 MOL     -0.713150
    156 O23         1.2120    3.2580   -0.6560 o         1 MOL     -0.713150
    157 H67         6.5160    2.6040   -1.0750 hn        1 MOL      0.151302
    158 H68         5.3770    4.0190    1.0950 h1        1 MOL      0.076062
    159 H69         4.7210    4.0000   -1.8280 hc        1 MOL      0.027569
    160 H70         3.7570    4.8140   -0.5190 hc        1 MOL      0.027569
    161 H71         3.2500    2.6550    0.5360 hc        1 MOL     -0.045180
    162 H72         4.0400    1.8470   -0.7330 hc        1 MOL     -0.045180
    163 N14         6.9140    6.1360    0.9060 n         1 MOL     -0.214871
    164 C55         6.7620    5.9880    2.3540 c3        1 MOL     -0.175591
    165 H73         6.2180    5.0680    2.5700 h1        1 MOL      0.079174
    166 H74         7.7470    5.9440    2.8200 h1        1 MOL      0.079174
    167 H75         6.2090    6.8390    2.7520 h1        1 MOL      0.079174
    168 H76         7.4120    6.9580    0.5820 hn        1 MOL      0.228644
    169 Ca1        -3.2540    0.7190   -0.1250 Ca        1 MOL      1.829209
    170 O24        -2.8100    3.4680    0.1370 oh        1 MOL     -0.910394
    171 H77        -2.8780    3.9220    0.9810 ho        1 MOL      0.440105
    172 H78        -2.2030    3.9920   -0.3720 ho        1 MOL      0.440105
    173 O25        -2.5560    1.7660   -2.6160 oh        1 MOL     -0.910394
    174 H79        -3.2150    1.6560   -3.2960 ho        1 MOL      0.440105
    175 H80        -2.5250    2.7060   -2.4670 ho        1 MOL      0.440105
    176 O26        -0.6090    1.3640   -0.4230 oh        1 MOL     -0.910394
    177 H81        -0.0290    2.1260   -0.4540 ho        1 MOL      0.440105
    178 H82        -0.0290    0.6170   -0.5610 ho        1 MOL      0.440105
    179 O27        -1.9320   -0.0450    2.1370 oh        1 MOL     -0.910394
    180 H83        -2.4880    0.3040    2.8360 ho        1 MOL      0.440105
    181 H84        -1.2580   -0.5440    2.5890 ho        1 MOL      0.440105
@<TRIPOS>BOND
     1    1    2 1   
     2    1    4 1   
     3    1    5 1   
     4    1    6 1   
     5    2    3 2   
     6    2    7 1   
     7    7    8 1   
     8    7   15 1   
     9    8    9 1   
    10    8   11 1   
    11    8   16 1   
    12    9   10 2   
    13    9   19 1   
    14   11   12 1   
    15   11   17 1   
    16   11   18 1   
    17   12   13 1   
    18   12   14 1   
    19   19   20 1   
    20   19   24 1   
    21   20   21 1   
    22   20   23 1   
    23   20   25 1   
    24   21   22 2   
    25   21   29 1   
    26   23   26 1   
    27   23   27 1   
    28   23   28 1   
    29   29   30 1   
    30   29   37 1   
    31   30   31 1   
    32   30   33 1   
    33   30   38 1   
    34   31   32 2   
    35   31   41 1   
    36   33   34 1   
    37   33   39 1   
    38   33   40 1   
    39   34   35 1   
    40   34   36 1   
    41   41   42 1   
    42   41   45 1   
    43   42   43 1   
    44   42   46 1   
    45   42   47 1   
    46   43   44 2   
    47   43   48 1   
    48   48   49 1   
    49   48   56 1   
    50   49   50 1   
    51   49   52 1   
    52   49   57 1   
    53   50   51 2   
    54   50   62 1   
    55   52   53 1   
    56   52   58 1   
    57   52   59 1   
    58   53   54 1   
    59   53   55 2   
    60   54   60 1   
    61   54   61 1   
    62   62   63 1   
    63   62   66 1   
    64   63   64 1   
    65   63   67 1   
    66   63   68 1   
    67   64   65 2   
    68   64   69 1   
    69   69   70 1   
    70   69   76 1   
    71   70   71 1   
    72   70   73 1   
    73   70   77 1   
    74   71   72 2   
    75   71   83 1   
    76   73   74 1   
    77   73   75 1   
    78   73   78 1   
    79   74   80 1   
    80   74   81 1   
    81   74   82 1   
    82   75   79 1   
    83   83   84 1   
    84   83   91 1   
    85   84   85 1   
    86   84   87 1   
    87   84   92 1   
    88   85   86 2   
    89   85  102 1   
    90   87   88 1   
    91   87   89 1   
    92   87   93 1   
    93   88   90 1   
    94   88   94 1   
    95   88   95 1   
    96   89   96 1   
    97   89   97 1   
    98   89   98 1   
    99   90   99 1   
   100   90  100 1   
   101   90  101 1   
   102  102  103 1   
   103  102  110 1   
   104  103  104 1   
   105  103  106 1   
   106  103  111 1   
   107  104  105 2   
   108  104  114 1   
   109  106  107 1   
   110  106  112 1   
   111  106  113 1   
   112  107  108 1   
   113  107  109 1   
   114  114  115 1   
   115  114  125 1   
   116  115  116 1   
   117  115  118 1   
   118  115  126 1   
   119  116  117 2   
   120  116  134 1   
   121  118  119 1   
   122  118  127 1   
   123  118  128 1   
   124  119  120 ar  
   125  119  121 ar  
   126  120  122 ar  
   127  120  129 1   
   128  121  123 ar  
   129  121  130 1   
   130  122  124 ar  
   131  122  131 1   
   132  123  124 ar  
   133  123  132 1   
   134  124  133 1   
   135  134  135 1   
   136  134  140 1   
   137  135  136 1   
   138  135  138 1   
   139  135  141 1   
   140  136  137 2   
   141  136  148 1   
   142  138  139 1   
   143  138  142 1   
   144  138  143 1   
   145  139  140 1   
   146  139  144 1   
   147  139  145 1   
   148  140  146 1   
   149  140  147 1   
   150  148  149 1   
   151  148  157 1   
   152  149  150 1   
   153  149  152 1   
   154  149  158 1   
   155  150  151 2   
   156  150  163 1   
   157  152  153 1   
   158  152  159 1   
   159  152  160 1   
   160  153  154 1   
   161  153  161 1   
   162  153  162 1   
   163  154  155 1   
   164  154  156 1   
   165  163  164 1   
   166  163  168 1   
   167  164  165 1   
   168  164  166 1   
   169  164  167 1   
   170  170  171 1   
   171  170  172 1   
   172  173  174 1   
   173  173  175 1   
   174  176  177 1   
   175  176  178 1   
   176  179  180 1   
   177  179  181 1   
@<TRIPOS>SUBSTRUCTURE
     1 MOL         1 TEMP              0 ****  ****    0 ROOT
