@<TRIPOS>MOLECULE
MOL
  178   175     1     0     0
SMALL
resp


@<TRIPOS>ATOM
      1 C1        -13.0980   -5.5020    1.3620 c3        1 MOL     -0.345662
      2 C2        -12.1630   -4.3810    1.9110 c         1 MOL      0.550078
      3 O1        -12.1490   -4.1230    3.1140 o         1 MOL     -0.557759
      4 H1        -14.0870   -5.3990    1.8060 hc        1 MOL      0.092707
      5 H2        -13.1760   -5.4130    0.2780 hc        1 MOL      0.092707
      6 H3        -12.6850   -6.4780    1.6180 hc        1 MOL      0.092707
      7 N1        -11.2550   -3.7730    1.0920 n         1 MOL     -0.361304
      8 C3        -11.0620   -4.0450   -0.4200 c3        1 MOL      0.013686
      9 C4        -11.8620   -3.0830   -1.3070 c         1 MOL      0.456751
     10 O2        -11.8570   -3.3330   -2.5250 o         1 MOL     -0.562416
     11 C5         -9.5420   -4.1020   -0.8160 c3        1 MOL     -0.417589
     12 C6         -8.8400   -2.7560   -0.5810 c         1 MOL      0.949458
     13 O3         -7.6140   -2.6150   -0.7920 o         1 MOL     -0.836403
     14 O4         -9.4230   -1.7670   -0.0910 o         1 MOL     -0.836403
     15 H4        -10.5590   -3.1560    1.4710 hn        1 MOL      0.223327
     16 H5        -11.2990   -5.0970   -0.5770 h1        1 MOL      0.112217
     17 H6         -9.4120   -4.3290   -1.8770 hc        1 MOL      0.133338
     18 H7         -9.1040   -4.9030   -0.2150 hc        1 MOL      0.133338
     19 N2        -12.4730   -2.0180   -0.8270 n         1 MOL     -0.380106
     20 C7        -13.2780   -1.0830   -1.5590 c3        1 MOL      0.262279
     21 C8        -12.5320    0.2140   -2.0020 c         1 MOL      0.303070
     22 O5        -13.0670    1.1060   -2.6220 o         1 MOL     -0.511504
     23 C9        -14.5000   -0.5760   -0.7440 c3        1 MOL     -0.163918
     24 H8        -12.3120   -1.8300    0.1500 hn        1 MOL      0.265183
     25 H9        -13.7140   -1.5800   -2.4310 h1        1 MOL      0.047677
     26 H10       -14.1680   -0.2030    0.2230 hc        1 MOL      0.043681
     27 H11       -15.1750    0.0540   -1.3340 hc        1 MOL      0.043681
     28 H12       -15.0220   -1.4870   -0.4630 hc        1 MOL      0.043681
     29 N3        -11.2130    0.3260   -1.6960 n         1 MOL     -0.234346
     30 C10       -10.4680    1.5830   -1.9450 c3        1 MOL      0.073887
     31 C11        -8.9780    1.3400   -2.2150 c         1 MOL      0.329990
     32 O6         -8.4570    0.2590   -1.8870 o         1 MOL     -0.501940
     33 C12       -10.5820    2.5550   -0.7840 c3        1 MOL     -0.004122
     34 C13       -10.5070    1.9090    0.5240 c         1 MOL      0.565943
     35 O7         -9.4480    1.2910    0.7980 o         1 MOL     -0.659622
     36 O8        -11.5680    1.9460    1.2540 o         1 MOL     -0.659622
     37 H13       -10.7610   -0.4520   -1.2220 hn        1 MOL      0.266406
     38 H14       -10.8600    2.1720   -2.7640 h1        1 MOL      0.047690
     39 H15       -11.5670    3.0210   -0.8420 hc        1 MOL     -0.000704
     40 H16        -9.8980    3.4000   -0.9140 hc        1 MOL     -0.000704
     41 N4         -8.2110    2.2920   -2.6690 n         1 MOL     -0.280230
     42 C14        -6.7660    2.2130   -2.8980 c3        1 MOL     -0.172984
     43 C15        -5.9610    1.9680   -1.7020 c         1 MOL      0.663036
     44 O9         -6.4520    1.8710   -0.5740 o         1 MOL     -0.597702
     45 H17        -8.6580    3.1350   -2.9960 hn        1 MOL      0.257493
     46 H18        -6.4320    3.1380   -3.3530 h1        1 MOL      0.125725
     47 H19        -6.5580    1.4890   -3.6850 h1        1 MOL      0.125725
     48 N5         -4.6210    1.9490   -1.9210 n         1 MOL     -0.727515
     49 C16        -3.7060    1.7030   -0.8000 c3        1 MOL      0.464239
     50 C17        -2.6720    2.9060   -0.7110 c         1 MOL      0.524533
     51 O10        -2.8560    3.8530   -1.5240 o         1 MOL     -0.550982
     52 C18        -2.9860    0.3480   -1.0230 c3        1 MOL     -0.445691
     53 C19        -3.8530   -0.9310   -0.7300 c         1 MOL      0.806165
     54 N6         -3.3210   -2.1420   -0.8190 n         1 MOL     -0.859372
     55 O11        -5.0170   -0.8350   -0.4140 o         1 MOL     -0.578794
     56 H20        -4.2240    2.3240   -2.7610 hn        1 MOL      0.357060
     57 H21        -4.1770    1.6810    0.1860 h1        1 MOL     -0.012489
     58 H22        -2.0240    0.2120   -0.5330 hc        1 MOL      0.117741
     59 H23        -2.7260    0.2790   -2.0760 hc        1 MOL      0.117741
     60 H24        -2.4270   -2.2770   -1.2820 hn        1 MOL      0.397502
     61 H25        -3.8900   -2.9390   -0.5470 hn        1 MOL      0.397502
     62 N7         -1.7730    2.8300    0.2310 n         1 MOL     -0.525889
     63 C20        -0.8240    3.9360    0.6150 c3        1 MOL      0.002929
     64 C21        -0.3710    3.7460    2.0970 c         1 MOL      0.580535
     65 O12        -1.0430    3.0830    2.8250 o         1 MOL     -0.546045
     66 H26        -1.7550    2.0380    0.8660 hn        1 MOL      0.309380
     67 H27        -1.2790    4.9170    0.4940 h1        1 MOL      0.122868
     68 H28         0.0420    3.8890   -0.0470 h1        1 MOL      0.122868
     69 N8          0.7190    4.4240    2.5140 n         1 MOL     -0.532234
     70 C22         1.6560    5.2060    1.6630 c3        1 MOL     -0.002888
     71 C23         2.8810    4.4740    1.2320 c         1 MOL      0.637486
     72 O13         3.5900    4.9520    0.3030 o         1 MOL     -0.533502
     73 C24         2.1010    6.5570    2.2620 c3        1 MOL      0.226562
     74 C25         0.9450    7.5790    2.3600 c3        1 MOL     -0.143716
     75 O14         2.6350    6.4370    3.6350 oh        1 MOL     -0.637264
     76 H29         1.0070    4.3140    3.4780 hn        1 MOL      0.345546
     77 H30         1.1140    5.3670    0.7320 h1        1 MOL      0.055874
     78 H31         2.8770    6.9620    1.6070 h1        1 MOL      0.040845
     79 H32         2.9680    7.2930    3.9000 ho        1 MOL      0.410829
     80 H33         0.4520    7.7870    1.4120 hc        1 MOL      0.034038
     81 H34         0.1180    7.2260    2.9850 hc        1 MOL      0.034038
     82 H35         1.2170    8.5470    2.7880 hc        1 MOL      0.034038
     83 N9          3.1310    3.2690    1.7810 n         1 MOL     -0.531229
     84 C26         4.2100    2.4010    1.4560 c3        1 MOL     -0.188110
     85 C27         3.8610    1.8220    0.0690 c         1 MOL      0.690641
     86 O15         2.7340    1.5890   -0.3800 o         1 MOL     -0.583599
     87 C28         4.3760    1.3740    2.6520 c3        1 MOL      0.047323
     88 C29         4.8440    2.1830    3.9470 c3        1 MOL      0.169226
     89 C30         5.2650    0.2430    2.1940 c3        1 MOL      0.184618
     90 C31         4.7240    1.3150    5.2460 c3        1 MOL     -0.494132
     91 H36         2.4860    3.0190    2.5160 hn        1 MOL      0.285357
     92 H37         5.0720    3.0700    1.3810 h1        1 MOL      0.075967
     93 H38         3.4360    0.8610    2.8520 hc        1 MOL      0.031229
     94 H39         4.3210    3.1170    4.1670 hc        1 MOL     -0.005959
     95 H40         5.9150    2.3840    3.9420 hc        1 MOL     -0.005959
     96 H41         5.5500   -0.4970    2.9360 hc        1 MOL     -0.060544
     97 H42         4.8300   -0.3500    1.3900 hc        1 MOL     -0.060544
     98 H43         6.1590    0.7470    1.8270 hc        1 MOL     -0.060544
     99 H44         5.4600    1.8630    5.8340 hc        1 MOL      0.118689
    100 H45         3.7100    1.4520    5.6290 hc        1 MOL      0.118689
    101 H46         5.0020    0.3200    4.9210 hc        1 MOL      0.118689
    102 N10         4.9120    1.4510   -0.7250 n         1 MOL     -0.461080
    103 C32         6.2900    1.8750   -0.5960 c3        1 MOL      0.298164
    104 C33         7.3290    0.8550   -1.0920 c         1 MOL      0.370005
    105 O16         6.9700   -0.1370   -1.6990 o         1 MOL     -0.457307
    106 C34         6.4750    3.1880   -1.3640 c3        1 MOL     -0.090768
    107 C35         6.0340    3.0850   -2.8030 c         1 MOL      0.651303
    108 O17         6.8270    2.6780   -3.7250 o         1 MOL     -0.703012
    109 O18         4.8800    3.3700   -2.9870 o         1 MOL     -0.703012
    110 H47         4.6200    1.0780   -1.6090 hn        1 MOL      0.334702
    111 H48         6.6270    2.1710    0.3990 h1        1 MOL      0.002963
    112 H49         7.5370    3.4100   -1.3100 hc        1 MOL     -0.031280
    113 H50         6.0160    4.0040   -0.8020 hc        1 MOL     -0.031280
    114 N11         8.5900    1.0540   -0.7530 n         1 MOL     -0.521640
    115 C36         9.7400    0.1510   -1.0840 c3        1 MOL      0.443565
    116 C37        10.6360   -0.2930    0.0840 c         1 MOL      0.118485
    117 O19        10.9170    0.4850    0.9540 o         1 MOL     -0.480246
    118 C38        10.6180    0.9770   -2.0580 c3        1 MOL      0.047487
    119 C39        11.8830    0.3000   -2.6080 ca        1 MOL      0.086235
    120 C40        13.1440    0.2990   -2.0170 ca        1 MOL     -0.238258
    121 C41        11.7090   -0.4000   -3.8150 ca        1 MOL     -0.238258
    122 C42        14.2040   -0.2740   -2.6990 ca        1 MOL     -0.000290
    123 C43        12.8320   -0.9610   -4.5350 ca        1 MOL     -0.000290
    124 C44        14.0810   -0.9170   -3.9430 ca        1 MOL     -0.249782
    125 H51         8.7700    1.6990    0.0090 hn        1 MOL      0.286953
    126 H52         9.3880   -0.6950   -1.6690 h1        1 MOL     -0.015406
    127 H53        10.9220    1.8690   -1.5150 hc        1 MOL     -0.013185
    128 H54        10.0440    1.3240   -2.9160 hc        1 MOL     -0.013185
    129 H55        13.2730    0.6650   -1.0110 ha        1 MOL      0.149875
    130 H56        10.7190   -0.3860   -4.2320 ha        1 MOL      0.149875
    131 H57        15.1480   -0.1300   -2.1990 ha        1 MOL      0.076013
    132 H58        12.6100   -1.4250   -5.4870 ha        1 MOL      0.076013
    133 H59        14.9100   -1.4340   -4.3980 ha        1 MOL      0.122495
    134 N12        11.1660   -1.5670    0.1440 n         1 MOL      0.063751
    135 C45        10.8520   -2.5740   -0.8610 c3        1 MOL     -0.054778
    136 C46         9.5600   -3.3940   -0.5210 c         1 MOL      0.444844
    137 O20         9.0250   -4.0920   -1.3650 o         1 MOL     -0.499890
    138 C47        12.0700   -3.5230   -0.7530 c3        1 MOL     -0.042283
    139 C48        12.5100   -3.4630    0.6890 c3        1 MOL     -0.008343
    140 C49        12.2760   -1.9770    1.0620 c3        1 MOL     -0.182614
    141 H60        10.8380   -2.2860   -1.9090 h1        1 MOL      0.094096
    142 H61        11.8610   -4.5360   -1.1130 hc        1 MOL      0.028080
    143 H62        12.7600   -3.0070   -1.4160 hc        1 MOL      0.028080
    144 H63        11.8890   -4.0390    1.3740 hc        1 MOL      0.020146
    145 H64        13.5450   -3.7960    0.7850 hc        1 MOL      0.020146
    146 H65        11.9720   -1.7570    2.0900 h1        1 MOL      0.081931
    147 H66        13.1910   -1.4650    0.7850 h1        1 MOL      0.081931
    148 N13         9.0910   -3.3800    0.7770 n         1 MOL     -0.397881
    149 C50         7.9200   -3.8950    1.3740 c3        1 MOL      0.167288
    150 C51         8.1100   -4.2080    2.8940 c         1 MOL      0.428109
    151 O21         8.9560   -3.6330    3.5690 o         1 MOL     -0.563924
    152 C52         6.7820   -2.9440    1.1900 c3        1 MOL     -0.087369
    153 C53         6.1040   -2.9480   -0.1710 c3        1 MOL      0.048156
    154 C54         5.0870   -4.0710   -0.3890 c         1 MOL      0.637836
    155 O22         3.9860   -3.6770   -0.8260 o         1 MOL     -0.709982
    156 O23         5.4840   -5.2650   -0.3920 o         1 MOL     -0.709982
    157 H67         9.5080   -2.7710    1.4720 hn        1 MOL      0.259809
    158 H68         7.6610   -4.8430    0.8920 h1        1 MOL      0.066604
    159 H69         7.1590   -1.9460    1.4230 hc        1 MOL      0.010773
    160 H70         5.9900   -3.1350    1.9170 hc        1 MOL      0.010773
    161 H71         6.8730   -2.9350   -0.9420 hc        1 MOL     -0.010876
    162 H72         5.5870   -2.0020   -0.3640 hc        1 MOL     -0.010876
    163 N14         7.2650   -5.0590    3.5050 n         1 MOL     -0.401602
    164 C55         6.1040   -5.8070    2.8540 c3        1 MOL     -0.007383
    165 H73         5.2900   -5.9090    3.5710 h1        1 MOL      0.042795
    166 H74         5.7540   -5.2490    1.9850 h1        1 MOL      0.042795
    167 H75         6.4380   -6.7960    2.5400 h1        1 MOL      0.042795
    168 H76         7.5300   -5.1890    4.4720 hn        1 MOL      0.260163
    169 Ca1        -7.4280   -0.2930    0.5560 Ca        1 MOL      1.723521
    170 O24        -5.4410    0.8330    2.4480 oh        1 MOL     -0.805993
    171 H77        -5.9350    1.2140    3.1700 ho        1 MOL      0.401887
    172 H78        -4.6500    0.4810    2.8590 ho        1 MOL      0.401887
    173 O25        -5.9900   -2.2990    1.9430 oh        1 MOL     -0.805993
    174 H79        -5.1120   -2.6870    1.9290 ho        1 MOL      0.401887
    175 H80        -6.5720   -3.0310    2.1660 ho        1 MOL      0.401887
    176 O26        -8.1830   -0.4440    2.9610 oh        1 MOL     -0.805993
    177 H81        -8.9760   -0.1120    3.3730 ho        1 MOL      0.401887
    178 H82        -7.9460   -1.2130    3.4800 ho        1 MOL      0.401887
@<TRIPOS>BOND
     1    1    2 1   
     2    1    4 1   
     3    1    5 1   
     4    1    6 1   
     5    2    3 2   
     6    2    7 1   
     7    7    8 1   
     8    7   15 1   
     9    8    9 1   
    10    8   11 1   
    11    8   16 1   
    12    9   10 2   
    13    9   19 1   
    14   11   12 1   
    15   11   17 1   
    16   11   18 1   
    17   12   13 1   
    18   12   14 1   
    19   19   20 1   
    20   19   24 1   
    21   20   21 1   
    22   20   23 1   
    23   20   25 1   
    24   21   22 2   
    25   21   29 1   
    26   23   26 1   
    27   23   27 1   
    28   23   28 1   
    29   29   30 1   
    30   29   37 1   
    31   30   31 1   
    32   30   33 1   
    33   30   38 1   
    34   31   32 2   
    35   31   41 1   
    36   33   34 1   
    37   33   39 1   
    38   33   40 1   
    39   34   35 1   
    40   34   36 1   
    41   41   42 1   
    42   41   45 1   
    43   42   43 1   
    44   42   46 1   
    45   42   47 1   
    46   43   44 2   
    47   43   48 1   
    48   48   49 1   
    49   48   56 1   
    50   49   50 1   
    51   49   52 1   
    52   49   57 1   
    53   50   51 2   
    54   50   62 1   
    55   52   53 1   
    56   52   58 1   
    57   52   59 1   
    58   53   54 1   
    59   53   55 2   
    60   54   60 1   
    61   54   61 1   
    62   62   63 1   
    63   62   66 1   
    64   63   64 1   
    65   63   67 1   
    66   63   68 1   
    67   64   65 2   
    68   64   69 1   
    69   69   70 1   
    70   69   76 1   
    71   70   71 1   
    72   70   73 1   
    73   70   77 1   
    74   71   72 2   
    75   71   83 1   
    76   73   74 1   
    77   73   75 1   
    78   73   78 1   
    79   74   80 1   
    80   74   81 1   
    81   74   82 1   
    82   75   79 1   
    83   83   84 1   
    84   83   91 1   
    85   84   85 1   
    86   84   87 1   
    87   84   92 1   
    88   85   86 2   
    89   85  102 1   
    90   87   88 1   
    91   87   89 1   
    92   87   93 1   
    93   88   90 1   
    94   88   94 1   
    95   88   95 1   
    96   89   96 1   
    97   89   97 1   
    98   89   98 1   
    99   90   99 1   
   100   90  100 1   
   101   90  101 1   
   102  102  103 1   
   103  102  110 1   
   104  103  104 1   
   105  103  106 1   
   106  103  111 1   
   107  104  105 2   
   108  104  114 1   
   109  106  107 1   
   110  106  112 1   
   111  106  113 1   
   112  107  108 1   
   113  107  109 1   
   114  114  115 1   
   115  114  125 1   
   116  115  116 1   
   117  115  118 1   
   118  115  126 1   
   119  116  117 2   
   120  116  134 1   
   121  118  119 1   
   122  118  127 1   
   123  118  128 1   
   124  119  120 ar  
   125  119  121 ar  
   126  120  122 ar  
   127  120  129 1   
   128  121  123 ar  
   129  121  130 1   
   130  122  124 ar  
   131  122  131 1   
   132  123  124 ar  
   133  123  132 1   
   134  124  133 1   
   135  134  135 1   
   136  134  140 1   
   137  135  136 1   
   138  135  138 1   
   139  135  141 1   
   140  136  137 2   
   141  136  148 1   
   142  138  139 1   
   143  138  142 1   
   144  138  143 1   
   145  139  140 1   
   146  139  144 1   
   147  139  145 1   
   148  140  146 1   
   149  140  147 1   
   150  148  149 1   
   151  148  157 1   
   152  149  150 1   
   153  149  152 1   
   154  149  158 1   
   155  150  151 2   
   156  150  163 1   
   157  152  153 1   
   158  152  159 1   
   159  152  160 1   
   160  153  154 1   
   161  153  161 1   
   162  153  162 1   
   163  154  155 1   
   164  154  156 1   
   165  163  164 1   
   166  163  168 1   
   167  164  165 1   
   168  164  166 1   
   169  164  167 1   
   170  170  171 1   
   171  170  172 1   
   172  173  174 1   
   173  173  175 1   
   174  176  177 1   
   175  176  178 1   
@<TRIPOS>SUBSTRUCTURE
     1 MOL         1 TEMP              0 ****  ****    0 ROOT
