@<TRIPOS>MOLECULE
MOL
  201   193     1     0     0
SMALL
resp


@<TRIPOS>ATOM
      1 C1          3.0510   -2.7730   -2.5590 c3        1 MOL     -0.326533
      2 C2          1.9220   -3.2620   -1.6620 c         1 MOL      0.612103
      3 O1          1.2060   -2.4200   -1.0780 o         1 MOL     -0.553925
      4 H1          3.4350   -3.6080   -3.1460 hc        1 MOL      0.084469
      5 H2          2.6740   -2.0010   -3.2300 hc        1 MOL      0.084469
      6 H3          3.8520   -2.3630   -1.9450 hc        1 MOL      0.084469
      7 N1          1.7850   -4.5350   -1.4630 n         1 MOL     -0.601677
      8 C3          0.9450   -5.1890   -0.4600 c3        1 MOL      0.282508
      9 C4         -0.6610   -4.9250   -0.5850 c         1 MOL      0.515880
     10 O2         -1.3740   -4.7730    0.3910 o         1 MOL     -0.397547
     11 C5          1.4480   -4.6680    0.9390 c3        1 MOL     -0.641727
     12 C6          1.0510   -5.5640    2.1170 c         1 MOL      0.779222
     13 O3          1.3440   -5.2570    3.2750 o         1 MOL     -0.659582
     14 O4          0.6440   -6.7040    1.8230 o         1 MOL     -0.659582
     15 H4          2.4980   -5.1760   -1.7820 hn        1 MOL      0.326603
     16 H5          1.0970   -6.2660   -0.5500 h1        1 MOL      0.005297
     17 H6          0.9550   -3.7030    1.0440 hc        1 MOL      0.209739
     18 H7          2.5210   -4.5160    0.9710 hc        1 MOL      0.209739
     19 N2         -1.1350   -4.9470   -1.8610 n         1 MOL     -0.320366
     20 C7         -2.5740   -4.7820   -2.2360 c3        1 MOL     -0.426123
     21 C8         -3.3920   -5.9330   -1.5070 c         1 MOL      0.359728
     22 O5         -2.8440   -7.0010   -1.1990 o         1 MOL     -0.505842
     23 C9         -2.7680   -4.6320   -3.7350 c3        1 MOL      0.572478
     24 C10        -2.6340   -5.9010   -4.5530 c3        1 MOL     -0.084473
     25 C11        -1.8750   -3.4770   -4.2220 c3        1 MOL     -0.438904
     26 C12        -2.6110   -5.7350   -6.1230 c3        1 MOL     -0.189386
     27 H8         -0.4310   -5.2080   -2.5380 hn        1 MOL      0.177034
     28 H9         -2.7380   -3.7950   -1.7990 h1        1 MOL      0.192815
     29 H10        -3.8100   -4.3280   -3.8710 hc        1 MOL     -0.021669
     30 H11        -3.5180   -6.5100   -4.3470 hc        1 MOL      0.043466
     31 H12        -1.7290   -6.4470   -4.2750 hc        1 MOL      0.043466
     32 H13        -2.3040   -3.1390   -5.1590 hc        1 MOL      0.087166
     33 H14        -1.9350   -2.6360   -3.5300 hc        1 MOL      0.087166
     34 H15        -0.8000   -3.6700   -4.2850 hc        1 MOL      0.087166
     35 H16        -3.3280   -4.9520   -6.3790 hc        1 MOL      0.033402
     36 H17        -1.5980   -5.4760   -6.4470 hc        1 MOL      0.033402
     37 H18        -2.9220   -6.6510   -6.6300 hc        1 MOL      0.033402
     38 N3         -4.7020   -5.8620   -1.3550 n         1 MOL     -0.345426
     39 C13        -5.5930   -4.6930   -1.4910 c3        1 MOL      0.205991
     40 C14        -6.0630   -4.2120   -0.0470 c         1 MOL      0.533154
     41 O6         -6.9010   -3.3440    0.0560 o         1 MOL     -0.442359
     42 C15        -6.7390   -5.2740   -2.3740 c3        1 MOL     -0.281234
     43 C16        -7.8010   -4.2670   -2.8600 c         1 MOL      0.762867
     44 O7         -8.7640   -4.7690   -3.5180 o         1 MOL     -0.707495
     45 O8         -7.7470   -3.0430   -2.5790 o         1 MOL     -0.707495
     46 H19        -5.2150   -6.7080   -1.1300 hn        1 MOL      0.235115
     47 H20        -5.0410   -3.8640   -1.9330 h1        1 MOL     -0.007422
     48 H21        -7.3230   -6.0380   -1.8570 hc        1 MOL      0.049778
     49 H22        -6.2280   -5.6710   -3.2570 hc        1 MOL      0.049778
     50 N4         -5.6630   -4.9150    1.0370 n         1 MOL     -0.443151
     51 C17        -6.3560   -4.8210    2.3370 c3        1 MOL     -0.285832
     52 C18        -5.9400   -3.7320    3.3220 c         1 MOL      0.600292
     53 O9         -6.0860   -3.8980    4.5620 o         1 MOL     -0.585271
     54 H23        -4.7870   -5.4060    1.0590 hn        1 MOL      0.351472
     55 H24        -6.1180   -5.7540    2.8280 h1        1 MOL      0.123418
     56 H25        -7.4260   -4.7250    2.1340 h1        1 MOL      0.123418
     57 N5         -5.4960   -2.5660    2.8120 n         1 MOL     -0.264931
     58 C19        -5.8670   -1.3420    3.5090 c3        1 MOL      0.008796
     59 C20        -6.9090   -0.5350    2.7390 c         1 MOL      0.475772
     60 O10        -7.6750    0.2500    3.3610 o         1 MOL     -0.585595
     61 C21        -4.5780   -0.6430    3.8170 c3        1 MOL     -0.295286
     62 C22        -3.7530   -0.4370    2.5820 c         1 MOL      0.727412
     63 O11        -2.8080   -1.2680    2.4040 o         1 MOL     -0.654350
     64 O12        -4.1820    0.4160    1.7810 o         1 MOL     -0.654350
     65 H26        -5.2590   -2.6680    1.8310 hn        1 MOL      0.195213
     66 H27        -6.4250   -1.4790    4.4280 h1        1 MOL      0.100826
     67 H28        -3.9590   -1.2120    4.5240 hc        1 MOL      0.070546
     68 H29        -4.8870    0.3700    4.0680 hc        1 MOL      0.070546
     69 N6         -7.0080   -0.6270    1.4230 n         1 MOL     -0.338680
     70 C23        -7.8930    0.2760    0.5740 c3        1 MOL     -0.202099
     71 C24        -7.6150    1.7260    0.5970 c         1 MOL      0.542802
     72 O13        -8.4400    2.4750    0.0000 o         1 MOL     -0.605673
     73 H30        -6.3710   -1.2760    0.9830 hn        1 MOL      0.271409
     74 H31        -8.9080    0.1080    0.9310 h1        1 MOL      0.149836
     75 H32        -7.9420   -0.0770   -0.4540 h1        1 MOL      0.149836
     76 N7         -6.5770    2.1520    1.3120 n         1 MOL     -0.061205
     77 C25        -6.2500    3.6030    1.6980 c3        1 MOL     -0.253928
     78 C26        -5.9510    4.5090    0.5310 c         1 MOL      0.519357
     79 O14        -6.0910    5.7460    0.6020 o         1 MOL     -0.519575
     80 C27        -7.3650    4.1090    2.7130 c3        1 MOL      0.332342
     81 C28        -7.4480    3.4440    4.0780 c3        1 MOL     -0.355562
     82 C29        -6.6140    4.2340    5.0880 c         1 MOL      0.692228
     83 N8         -6.4160    3.6800    6.2430 n         1 MOL     -0.812085
     84 O15        -6.1010    5.3130    4.9220 o         1 MOL     -0.576257
     85 H33        -6.0360    1.4320    1.7730 hn        1 MOL      0.121172
     86 H34        -5.2840    3.5640    2.1940 h1        1 MOL      0.156891
     87 H35        -8.3240    3.9090    2.2310 hc        1 MOL     -0.044850
     88 H36        -7.3500    5.1800    2.8840 hc        1 MOL     -0.044850
     89 H37        -7.0220    2.4480    3.9750 hc        1 MOL      0.091975
     90 H38        -8.5000    3.4720    4.3750 hc        1 MOL      0.091975
     91 H39        -6.7780    2.7380    6.3700 hn        1 MOL      0.355412
     92 H40        -5.7860    4.2340    6.8000 hn        1 MOL      0.355412
     93 N9         -5.5510    3.9400   -0.6190 n         1 MOL     -0.390449
     94 C30        -5.5070    4.7030   -1.8780 c3        1 MOL     -0.031714
     95 C31        -4.0840    4.7170   -2.5080 c         1 MOL      0.558776
     96 O16        -3.6800    5.5470   -3.2790 o         1 MOL     -0.580598
     97 C32        -6.4860    4.0800   -2.8280 c3        1 MOL      0.227907
     98 C33        -6.4660    2.5540   -2.9460 c3        1 MOL     -0.254101
     99 C34        -7.9550    4.5490   -2.7920 c3        1 MOL     -0.254101
    100 H41        -5.4850    2.9370   -0.6310 hn        1 MOL      0.221422
    101 H42        -5.7730    5.7590   -1.7730 h1        1 MOL      0.095621
    102 H43        -6.1450    4.3080   -3.8390 hc        1 MOL     -0.047480
    103 H44        -5.4480    2.1660   -2.9400 hc        1 MOL      0.061468
    104 H45        -7.0570    2.1580   -2.1190 hc        1 MOL      0.061468
    105 H46        -6.8580    2.2470   -3.9180 hc        1 MOL      0.061468
    106 H47        -8.0190    5.6300   -2.8820 hc        1 MOL      0.061468
    107 H48        -8.5020    4.1600   -3.6520 hc        1 MOL      0.061468
    108 H49        -8.3990    4.2720   -1.8410 hc        1 MOL      0.061468
    109 N10        -3.3110    3.7120   -2.1150 n         1 MOL     -0.441396
    110 C35        -1.8890    3.5150   -2.5820 c3        1 MOL      0.313110
    111 C36        -0.8270    3.4920   -1.4130 c         1 MOL      0.488104
    112 O17        -1.2340    3.1030   -0.2710 o         1 MOL     -0.548352
    113 C37        -1.8720    2.1520   -3.3050 c3        1 MOL     -0.277550
    114 C38        -0.5080    1.8340   -3.9800 c         1 MOL      0.633128
    115 N11        -0.0860    0.6040   -4.0300 n         1 MOL     -0.785675
    116 O18         0.2370    2.7120   -4.4120 o         1 MOL     -0.570624
    117 H50        -3.7100    3.0630   -1.4450 hn        1 MOL      0.240862
    118 H51        -1.6460    4.3170   -3.2760 h1        1 MOL      0.037491
    119 H52        -2.5300    2.3050   -4.1630 hc        1 MOL      0.096520
    120 H53        -2.2080    1.3640   -2.6450 hc        1 MOL      0.096520
    121 H54        -0.5710   -0.1180   -3.5060 hn        1 MOL      0.380123
    122 H55         0.8680    0.5760   -4.3610 hn        1 MOL      0.380123
    123 N12         0.5050    3.6650   -1.6230 n         1 MOL     -0.607533
    124 C39         1.5230    3.6010   -0.6040 c3        1 MOL      0.331813
    125 C40         2.8520    4.0640   -1.1300 c         1 MOL      0.523115
    126 O19         3.1870    3.8800   -2.2950 o         1 MOL     -0.539071
    127 C41         1.6490    2.1470   -0.0680 c3        1 MOL      0.036487
    128 C42         2.1570    2.1470    1.3660 ca        1 MOL     -0.201330
    129 C43         3.4200    1.8160    1.7980 ca        1 MOL      0.006916
    130 C44         1.2630    2.2930    2.4310 ca        1 MOL      0.006916
    131 C45         3.8220    1.7380    3.1830 ca        1 MOL     -0.358311
    132 C46         1.6470    2.5310    3.7600 ca        1 MOL     -0.358311
    133 C47         2.9520    2.2370    4.1340 ca        1 MOL      0.431000
    134 O20         3.3120    2.2580    5.3950 oh        1 MOL     -0.500585
    135 H56         0.8080    3.6090   -2.5840 hn        1 MOL      0.251957
    136 H57         1.2110    4.3020    0.1720 h1        1 MOL      0.020169
    137 H58         2.4600    1.6110   -0.5820 hc        1 MOL      0.047908
    138 H59         0.7490    1.5620   -0.2920 hc        1 MOL      0.047908
    139 H60         4.1240    1.5090    1.0500 ha        1 MOL      0.122863
    140 H61         0.2060    2.4280    2.2270 ha        1 MOL      0.122863
    141 H62         4.8080    1.3900    3.4920 ha        1 MOL      0.161514
    142 H63         0.9920    2.8310    4.5630 ha        1 MOL      0.161514
    143 H64         4.1560    1.8250    5.5150 ho        1 MOL      0.345779
    144 N13         3.6640    4.4960   -0.1730 n         1 MOL     -0.564461
    145 C48         5.0760    4.9700   -0.3940 c3        1 MOL      0.291502
    146 C49         6.0280    4.1800    0.4830 c         1 MOL      0.443242
    147 O21         6.1580    4.5170    1.6380 o         1 MOL     -0.561883
    148 C50         5.2240    6.4390   -0.0710 c3        1 MOL      0.024311
    149 C51         4.4800    7.3690   -1.0220 c3        1 MOL     -0.330308
    150 C52         4.9000    8.7830   -0.6040 c         1 MOL      0.697905
    151 O22         4.4750    9.3200    0.4650 o         1 MOL     -0.668630
    152 O23         5.7040    9.4390   -1.3730 o         1 MOL     -0.668630
    153 H65         3.4130    4.4910    0.8020 hn        1 MOL      0.287495
    154 H66         5.3030    4.7570   -1.4380 h1        1 MOL      0.022056
    155 H67         6.2790    6.6600   -0.2090 hc        1 MOL      0.040017
    156 H68         5.0340    6.6550    0.9800 hc        1 MOL      0.040017
    157 H69         3.4030    7.2670   -0.8930 hc        1 MOL      0.078699
    158 H70         4.8010    7.1930   -2.0490 hc        1 MOL      0.078699
    159 N14         6.7090    3.0710    0.0480 n         1 MOL     -0.465607
    160 C53         6.6750    2.3860   -1.2440 c3        1 MOL     -0.112458
    161 C54         6.9700    3.2470   -2.4580 c         1 MOL      0.598613
    162 O24         7.9840    3.9520   -2.4910 o         1 MOL     -0.548624
    163 C55         7.6130    1.1420   -1.0930 c3        1 MOL     -0.411162
    164 C56         7.0890    0.0960   -0.1290 c3        1 MOL      0.294476
    165 C57         8.1940   -0.7680    0.3980 c         1 MOL      0.405926
    166 O25         8.1250   -1.1590    1.6330 o         1 MOL     -0.654560
    167 O26         9.0320   -1.3210   -0.4260 o         1 MOL     -0.654560
    168 H71         7.2770    2.6380    0.7600 hn        1 MOL      0.337359
    169 H72         5.7110    1.8910   -1.3740 h1        1 MOL      0.031136
    170 H73         8.6290    1.4150   -0.8360 hc        1 MOL      0.141939
    171 H74         7.6440    0.7270   -2.0980 hc        1 MOL      0.141939
    172 H75         6.4080   -0.5680   -0.6650 hc        1 MOL     -0.046171
    173 H76         6.6660    0.4580    0.8090 hc        1 MOL     -0.046171
    174 N15         6.1920    3.0310   -3.5480 n         1 MOL     -0.265342
    175 C58         6.1790    3.7970   -4.8260 c3        1 MOL     -0.338215
    176 H77         6.4020    4.8450   -4.6230 h1        1 MOL      0.137525
    177 H78         6.9310    3.3910   -5.5020 h1        1 MOL      0.137525
    178 H79         5.1940    3.7180   -5.2870 h1        1 MOL      0.137525
    179 H80         5.5790    2.2450   -3.4040 hn        1 MOL      0.244616
    180 Ca1         9.3200   -3.4340    1.3680 Ca        1 MOL      1.772189
    181 O27         8.4780   -6.1010    0.3760 oh        1 MOL     -0.812149
    182 H81         8.5180   -6.7070   -0.3690 ho        1 MOL      0.362080
    183 H82         8.0280   -6.5920    1.0530 ho        1 MOL      0.362080
    184 O28         6.9200   -3.4950    0.3330 oh        1 MOL     -0.812149
    185 H83         6.5200   -3.5300   -0.5380 ho        1 MOL      0.362080
    186 H84         6.2450   -3.0910    0.8820 ho        1 MOL      0.362080
    187 O29        11.7750   -2.1210    1.4570 oh        1 MOL     -0.812149
    188 H85        12.4730   -1.7670    0.9190 ho        1 MOL      0.362080
    189 H86        11.8020   -1.5960    2.2630 ho        1 MOL      0.362080
    190 O30        10.5060   -4.3160   -0.9060 oh        1 MOL     -0.812149
    191 H87        11.0790   -3.9610   -1.5870 ho        1 MOL      0.362080
    192 H88        10.1550   -5.1190   -1.2840 ho        1 MOL      0.362080
    193 O31        11.1900   -5.2810    1.8770 oh        1 MOL     -0.812149
    194 H89        11.2930   -6.1980    1.6390 ho        1 MOL      0.362080
    195 H90        11.8940   -5.1130    2.5000 ho        1 MOL      0.362080
    196 O32        10.0500   -2.9060    3.8080 oh        1 MOL     -0.812149
    197 H91         9.5620   -2.4480    4.4900 ho        1 MOL      0.362080
    198 H92        10.9360   -2.9680    4.1500 ho        1 MOL      0.362080
    199 O33         7.6890   -4.5480    3.0800 oh        1 MOL     -0.812149
    200 H93         6.9430   -5.0590    2.7660 ho        1 MOL      0.362080
    201 H94         7.6850   -4.6860    4.0320 ho        1 MOL      0.362080
@<TRIPOS>BOND
     1    1    2 1   
     2    1    4 1   
     3    1    5 1   
     4    1    6 1   
     5    2    3 2   
     6    2    7 1   
     7    7    8 1   
     8    7   15 1   
     9    8    9 1   
    10    8   11 1   
    11    8   16 1   
    12    9   10 2   
    13    9   19 1   
    14   11   12 1   
    15   11   17 1   
    16   11   18 1   
    17   12   13 1   
    18   12   14 1   
    19   19   20 1   
    20   19   27 1   
    21   20   21 1   
    22   20   23 1   
    23   20   28 1   
    24   21   22 2   
    25   21   38 1   
    26   23   24 1   
    27   23   25 1   
    28   23   29 1   
    29   24   26 1   
    30   24   30 1   
    31   24   31 1   
    32   25   32 1   
    33   25   33 1   
    34   25   34 1   
    35   26   35 1   
    36   26   36 1   
    37   26   37 1   
    38   38   39 1   
    39   38   46 1   
    40   39   40 1   
    41   39   42 1   
    42   39   47 1   
    43   40   41 2   
    44   40   50 1   
    45   42   43 1   
    46   42   48 1   
    47   42   49 1   
    48   43   44 1   
    49   43   45 1   
    50   50   51 1   
    51   50   54 1   
    52   51   52 1   
    53   51   55 1   
    54   51   56 1   
    55   52   53 2   
    56   52   57 1   
    57   57   58 1   
    58   57   65 1   
    59   58   59 1   
    60   58   61 1   
    61   58   66 1   
    62   59   60 2   
    63   59   69 1   
    64   61   62 1   
    65   61   67 1   
    66   61   68 1   
    67   62   63 1   
    68   62   64 1   
    69   69   70 1   
    70   69   73 1   
    71   70   71 1   
    72   70   74 1   
    73   70   75 1   
    74   71   72 2   
    75   71   76 1   
    76   76   77 1   
    77   76   85 1   
    78   77   78 1   
    79   77   80 1   
    80   77   86 1   
    81   78   79 2   
    82   78   93 1   
    83   80   81 1   
    84   80   87 1   
    85   80   88 1   
    86   81   82 1   
    87   81   89 1   
    88   81   90 1   
    89   82   83 1   
    90   82   84 2   
    91   83   91 1   
    92   83   92 1   
    93   93   94 1   
    94   93  100 1   
    95   94   95 1   
    96   94   97 1   
    97   94  101 1   
    98   95   96 2   
    99   95  109 1   
   100   97   98 1   
   101   97   99 1   
   102   97  102 1   
   103   98  103 1   
   104   98  104 1   
   105   98  105 1   
   106   99  106 1   
   107   99  107 1   
   108   99  108 1   
   109  109  110 1   
   110  109  117 1   
   111  110  111 1   
   112  110  113 1   
   113  110  118 1   
   114  111  112 2   
   115  111  123 1   
   116  113  114 1   
   117  113  119 1   
   118  113  120 1   
   119  114  115 1   
   120  114  116 2   
   121  115  121 1   
   122  115  122 1   
   123  123  124 1   
   124  123  135 1   
   125  124  125 1   
   126  124  127 1   
   127  124  136 1   
   128  125  126 2   
   129  125  144 1   
   130  127  128 1   
   131  127  137 1   
   132  127  138 1   
   133  128  129 ar  
   134  128  130 ar  
   135  129  131 ar  
   136  129  139 1   
   137  130  132 ar  
   138  130  140 1   
   139  131  133 ar  
   140  131  141 1   
   141  132  133 ar  
   142  132  142 1   
   143  133  134 1   
   144  134  143 1   
   145  144  145 1   
   146  144  153 1   
   147  145  146 1   
   148  145  148 1   
   149  145  154 1   
   150  146  147 2   
   151  146  159 1   
   152  148  149 1   
   153  148  155 1   
   154  148  156 1   
   155  149  150 1   
   156  149  157 1   
   157  149  158 1   
   158  150  151 1   
   159  150  152 1   
   160  159  160 1   
   161  159  168 1   
   162  160  161 1   
   163  160  163 1   
   164  160  169 1   
   165  161  162 2   
   166  161  174 1   
   167  163  164 1   
   168  163  170 1   
   169  163  171 1   
   170  164  165 1   
   171  164  172 1   
   172  164  173 1   
   173  165  166 1   
   174  165  167 1   
   175  174  175 1   
   176  174  179 1   
   177  175  176 1   
   178  175  177 1   
   179  175  178 1   
   180  181  182 1   
   181  181  183 1   
   182  184  185 1   
   183  184  186 1   
   184  187  188 1   
   185  187  189 1   
   186  190  191 1   
   187  190  192 1   
   188  193  194 1   
   189  193  195 1   
   190  196  197 1   
   191  196  198 1   
   192  199  200 1   
   193  199  201 1   
@<TRIPOS>SUBSTRUCTURE
     1 MOL         1 TEMP              0 ****  ****    0 ROOT
