@<TRIPOS>MOLECULE
MOL
  189   185     1     0     0
SMALL
resp


@<TRIPOS>ATOM
      1 C1        -11.0370    0.1710   -0.5050 c3        1 MOL     -0.579987
      2 C2         -9.6150   -0.3500   -0.2720 c         1 MOL      0.615608
      3 O1         -9.0620   -0.9920   -1.1650 o         1 MOL     -0.566823
      4 H1        -11.4620   -0.3140   -1.3840 hc        1 MOL      0.158787
      5 H2        -11.6530   -0.0530    0.3660 hc        1 MOL      0.158787
      6 H3        -11.0090    1.2480   -0.6630 hc        1 MOL      0.158787
      7 N1         -8.9590   -0.0410    0.8440 n         1 MOL     -0.437585
      8 C3         -7.5330   -0.1160    1.0720 c3        1 MOL      0.026126
      9 C4         -7.0260   -1.5000    1.2960 c         1 MOL      0.264293
     10 O2         -6.6990   -1.9570    2.4400 o         1 MOL     -0.437663
     11 C5         -7.2940    0.7120    2.2980 c3        1 MOL      0.067675
     12 C6         -7.3930    2.1880    1.9950 c         1 MOL      0.612019
     13 O3         -7.4030    3.0370    2.9300 o         1 MOL     -0.633835
     14 O4         -7.4720    2.5520    0.8250 o         1 MOL     -0.633835
     15 H4         -9.5480    0.2280    1.6190 hn        1 MOL      0.296434
     16 H5         -7.0380    0.3480    0.2170 h1        1 MOL      0.069500
     17 H6         -6.2910    0.5620    2.7050 hc        1 MOL      0.000659
     18 H7         -7.9610    0.4990    3.1320 hc        1 MOL      0.000659
     19 N2         -6.8110   -2.2460    0.2100 n         1 MOL     -0.072288
     20 C7         -6.2540   -3.5860    0.2110 c3        1 MOL      0.005479
     21 C8         -4.8370   -3.6650    0.8100 c         1 MOL      0.507688
     22 O5         -4.5860   -4.5610    1.5690 o         1 MOL     -0.542218
     23 C9         -6.3040   -4.2180   -1.1790 c3        1 MOL     -0.225094
     24 C10        -7.7760   -4.4560   -1.5650 c3        1 MOL      0.110607
     25 C11        -7.8630   -4.9320   -2.9990 c3        1 MOL     -0.127744
     26 C12        -9.3010   -5.3450   -3.3110 c3        1 MOL      0.200740
     27 N3         -9.4760   -5.8140   -4.6910 n4        1 MOL     -0.300948
     28 H8         -7.1920   -2.0350   -0.6930 hn        1 MOL      0.183606
     29 H9         -6.9680   -4.1030    0.8450 h1        1 MOL      0.047988
     30 H10        -5.8820   -5.2200   -1.1540 hc        1 MOL      0.083041
     31 H11        -5.6880   -3.7200   -1.9290 hc        1 MOL      0.083041
     32 H12        -8.3620   -3.5700   -1.3610 hc        1 MOL      0.003227
     33 H13        -8.1530   -5.3050   -1.0040 hc        1 MOL      0.003227
     34 H14        -7.2630   -5.8420   -2.9930 hc        1 MOL      0.047236
     35 H15        -7.4780   -4.1900   -3.6980 hc        1 MOL      0.047236
     36 H16        -9.9220   -4.4500   -3.2850 hx        1 MOL      0.029223
     37 H17        -9.7030   -6.0210   -2.5640 hx        1 MOL      0.029223
     38 H18        -8.8730   -6.6100   -4.8600 hn        1 MOL      0.256906
     39 H19       -10.4190   -6.1590   -4.7850 hn        1 MOL      0.256906
     40 H20        -9.3280   -5.0940   -5.3910 hn        1 MOL      0.256906
     41 N4         -3.8510   -2.8040    0.5350 n         1 MOL     -0.469460
     42 C13        -3.7810   -1.5580   -0.2680 c3        1 MOL      0.203039
     43 C14        -3.9230   -0.2320    0.3960 c         1 MOL      0.097276
     44 O6         -3.9250   -0.1750    1.6060 o         1 MOL     -0.266907
     45 C15        -2.5110   -1.6710   -1.1740 c3        1 MOL     -0.129642
     46 C16        -1.2100   -1.9710   -0.4840 c         1 MOL      0.415006
     47 O7         -0.9230   -1.1720    0.4610 o         1 MOL     -0.558270
     48 O8         -0.4020   -2.8990   -0.8260 o         1 MOL     -0.558270
     49 H21        -2.9760   -3.1160    0.9410 hn        1 MOL      0.366908
     50 H22        -4.5930   -1.7250   -0.9830 h1        1 MOL     -0.023808
     51 H23        -2.3790   -0.8570   -1.8860 hc        1 MOL      0.038171
     52 H24        -2.7610   -2.4870   -1.8500 hc        1 MOL      0.038171
     53 N5         -3.9440    0.7760   -0.3960 n         1 MOL     -0.301751
     54 C17        -4.1800    2.2000    0.0190 c3        1 MOL     -0.010635
     55 C18        -2.8930    2.8270    0.4910 c         1 MOL      0.462996
     56 O9         -1.7890    2.2340    0.3670 o         1 MOL     -0.415438
     57 H25        -3.9920    0.6250   -1.4000 hn        1 MOL      0.272529
     58 H26        -4.8590    2.2130    0.8760 h1        1 MOL      0.088608
     59 H27        -4.6270    2.8340   -0.7340 h1        1 MOL      0.088608
     60 N6         -2.9680    4.0540    0.9560 n         1 MOL     -0.505368
     61 C19        -1.8470    4.9700    1.3840 c3        1 MOL      0.346321
     62 C20        -2.0890    6.4560    0.9860 c         1 MOL      0.368843
     63 O10        -3.2720    6.7660    0.7920 o         1 MOL     -0.503556
     64 C21        -1.6960    4.7280    2.8880 c3        1 MOL     -0.055086
     65 C22        -1.1700    3.3230    3.1720 c         1 MOL      0.645829
     66 O11        -0.1350    2.8790    2.6560 o         1 MOL     -0.676962
     67 O12        -1.8900    2.6280    3.9130 o         1 MOL     -0.676962
     68 H28        -3.8800    4.4450    1.1490 hn        1 MOL      0.322395
     69 H29        -0.8750    4.6730    0.9960 h1        1 MOL     -0.034087
     70 H30        -2.6910    4.9480    3.2700 hc        1 MOL      0.014193
     71 H31        -0.9370    5.3510    3.3600 hc        1 MOL      0.014193
     72 N7         -1.1410    7.4200    0.8700 n         1 MOL     -0.402045
     73 C23         0.3000    7.1830    1.1720 c3        1 MOL     -0.161404
     74 C24         0.9750    6.4010    0.0600 c         1 MOL      0.677970
     75 O13         0.5040    6.4160   -1.0440 o         1 MOL     -0.505329
     76 H32        -1.3060    8.4060    0.7350 hn        1 MOL      0.337218
     77 H33         0.4140    6.5380    2.0390 h1        1 MOL      0.079516
     78 H34         0.7890    8.1510    1.2730 h1        1 MOL      0.079516
     79 N8          1.9940    5.5660    0.4270 n         1 MOL     -0.671410
     80 C25         2.7910    4.8200   -0.5410 c3        1 MOL      0.067988
     81 C26         1.9770    3.5660   -1.0510 c         1 MOL      0.688748
     82 O14         1.4980    2.8350   -0.1990 o         1 MOL     -0.579824
     83 C27         4.1500    4.3940    0.0610 c3        1 MOL      0.202346
     84 C28         4.9890    3.3830   -0.7510 c3        1 MOL     -0.388371
     85 O15         4.0390    3.9640    1.3300 oh        1 MOL     -0.569231
     86 H35         2.2530    5.7120    1.3940 hn        1 MOL      0.320862
     87 H36         2.9960    5.4320   -1.4190 h1        1 MOL      0.045542
     88 H37         4.7040    5.3220    0.1810 h1        1 MOL      0.033153
     89 H38         4.0230    4.7290    1.9070 ho        1 MOL      0.427178
     90 H39         5.9520    3.2740   -0.2330 hc        1 MOL      0.130875
     91 H40         4.4220    2.4570   -0.6400 hc        1 MOL      0.130875
     92 H41         5.1370    3.7460   -1.7690 hc        1 MOL      0.130875
     93 N9          1.8640    3.2100   -2.3570 n         1 MOL     -0.606064
     94 C29         1.2770    2.0060   -2.9880 c3        1 MOL      0.060345
     95 C30         1.6420    0.6170   -2.4470 c         1 MOL      0.524615
     96 O16         1.1800    0.1780   -1.3040 o         1 MOL     -0.534008
     97 C31        -0.2920    2.1360   -2.9210 c3        1 MOL      0.455289
     98 C32        -0.8840    3.4310   -3.4500 c3        1 MOL     -0.264638
     99 C33        -0.9780    1.0240   -3.6710 c3        1 MOL     -0.265530
    100 C34        -0.4070    3.9500   -4.8060 c3        1 MOL     -0.322166
    101 H42         2.3890    3.8100   -2.9870 hn        1 MOL      0.301696
    102 H43         1.5180    2.0780   -4.0500 h1        1 MOL      0.052516
    103 H44        -0.5990    2.0330   -1.8850 hc        1 MOL     -0.219358
    104 H45        -0.6760    4.2350   -2.7420 hc        1 MOL      0.116392
    105 H46        -1.9640    3.2930   -3.5040 hc        1 MOL      0.116392
    106 H47        -2.0620    1.1620   -3.6840 hc        1 MOL      0.063745
    107 H48        -0.7120    1.0110   -4.7320 hc        1 MOL      0.063745
    108 H49        -0.7960    0.0350   -3.2760 hc        1 MOL      0.063745
    109 H50        -0.9620    3.3840   -5.5580 hc        1 MOL      0.087632
    110 H51        -0.6790    4.9980   -4.8190 hc        1 MOL      0.087632
    111 H52         0.6640    3.8290   -4.9340 hc        1 MOL      0.087632
    112 N10         2.3850   -0.1240   -3.2330 n         1 MOL     -0.494868
    113 C35         2.6580   -1.5280   -2.9390 c3        1 MOL      0.047715
    114 C36         4.1870   -1.8080   -3.1190 c         1 MOL      0.515429
    115 O17         4.6990   -2.9460   -3.0830 o         1 MOL     -0.567742
    116 C37         1.8130   -2.4740   -3.7580 c3        1 MOL      0.317005
    117 C38         1.9020   -2.1290   -5.2540 c3        1 MOL     -0.315747
    118 O18         0.4320   -2.2780   -3.5610 oh        1 MOL     -0.514271
    119 H53         2.7120    0.3060   -4.0910 hn        1 MOL      0.264129
    120 H54         2.4180   -1.7120   -1.8930 h1        1 MOL      0.052161
    121 H55         2.0910   -3.5180   -3.5960 h1        1 MOL      0.040027
    122 H56         0.2430   -2.5580   -2.6640 ho        1 MOL      0.284968
    123 H57         2.9610   -2.0600   -5.4970 hc        1 MOL      0.072309
    124 H58         1.3860   -2.8490   -5.8930 hc        1 MOL      0.072309
    125 H59         1.4330   -1.1790   -5.5270 hc        1 MOL      0.072309
    126 N11         4.9320   -0.7360   -3.1820 n         1 MOL     -0.215786
    127 C39         6.4190   -0.7410   -2.9780 c3        1 MOL     -0.050369
    128 C40         6.6870   -1.0040   -1.5090 c         1 MOL      0.422686
    129 O19         7.0990   -0.0810   -0.7730 o         1 MOL     -0.493469
    130 C41         7.2280    0.3830   -3.4950 c3        1 MOL      0.274179
    131 C42         7.2520    0.4030   -5.0090 c3        1 MOL     -0.168813
    132 O20         6.8630    1.6460   -3.0910 oh        1 MOL     -0.544992
    133 H60         4.5310    0.1860   -3.0850 hn        1 MOL      0.215068
    134 H61         6.7450   -1.6750   -3.4420 h1        1 MOL      0.071601
    135 H62         8.2700    0.2520   -3.2210 h1        1 MOL      0.017429
    136 H63         6.7070    1.5550   -2.1510 ho        1 MOL      0.314989
    137 H64         7.7580   -0.5140   -5.3300 hc        1 MOL      0.042861
    138 H65         6.2700    0.2550   -5.4470 hc        1 MOL      0.042861
    139 H66         7.7700    1.2320   -5.4950 hc        1 MOL      0.042861
    140 N12         6.3710   -2.2100   -0.9980 n         1 MOL     -0.511413
    141 C43         6.3400   -2.6700    0.3790 c3        1 MOL      0.162498
    142 C44         5.1480   -2.0600    1.1270 c         1 MOL      0.528165
    143 O21         4.7040   -0.9620    0.8590 o         1 MOL     -0.476460
    144 C45         7.6720   -2.5500    1.0850 c3        1 MOL     -0.523837
    145 C46         8.8670   -2.9930    0.2120 c3        1 MOL      0.278083
    146 C47        10.2670   -3.1280    0.8940 c3        1 MOL     -0.178982
    147 C48        10.5970   -1.9320    1.7750 c3        1 MOL      0.032180
    148 N13        11.0030   -0.8460    0.8940 n4        1 MOL     -0.191079
    149 H67         6.1680   -2.8540   -1.7510 hn        1 MOL      0.323705
    150 H68         6.0430   -3.7180    0.3540 h1        1 MOL      0.083817
    151 H69         7.6900   -3.3250    1.8600 hc        1 MOL      0.168516
    152 H70         7.8650   -1.5150    1.3860 hc        1 MOL      0.168516
    153 H71         9.0090   -2.2340   -0.5480 hc        1 MOL     -0.030750
    154 H72         8.7610   -3.9580   -0.2840 hc        1 MOL     -0.030750
    155 H73        11.0130   -3.3110    0.1200 hc        1 MOL      0.069115
    156 H74        10.2570   -4.0370    1.4930 hc        1 MOL      0.069115
    157 H75        11.4010   -2.1810    2.4720 hx        1 MOL      0.082050
    158 H76         9.6930   -1.6900    2.3420 hx        1 MOL      0.082050
    159 H77        10.5870   -0.9640   -0.0280 hn        1 MOL      0.223390
    160 H78        10.7280    0.0460    1.2770 hn        1 MOL      0.223390
    161 H79        12.0120   -0.7940    0.7930 hn        1 MOL      0.223390
    162 N14         4.5540   -2.7770    2.0930 n         1 MOL     -0.437893
    163 C49         3.2840   -2.4990    2.8040 c3        1 MOL     -0.159090
    164 C50         1.9820   -2.4780    1.9620 c         1 MOL      0.493955
    165 O22         1.3260   -1.4950    2.0270 o         1 MOL     -0.563141
    166 C51         3.0490   -3.4100    3.9630 c3        1 MOL      0.057106
    167 C52         4.0960   -3.2660    5.1200 c3        1 MOL     -0.183115
    168 C53         3.6770   -4.1260    6.2950 c         1 MOL      0.631860
    169 O23         4.0350   -5.3130    6.2380 o         1 MOL     -0.635568
    170 O24         2.8780   -3.6240    7.2110 o         1 MOL     -0.635568
    171 H80         5.0050   -3.6440    2.3240 hn        1 MOL      0.290068
    172 H81         3.3980   -1.4520    3.0970 h1        1 MOL      0.145969
    173 H82         2.9160   -4.4550    3.6610 hc        1 MOL      0.071014
    174 H83         2.0880   -3.1830    4.4240 hc        1 MOL      0.071014
    175 H84         4.0970   -2.2290    5.4680 hc        1 MOL      0.013648
    176 H85         5.0850   -3.5940    4.8020 hc        1 MOL      0.013648
    177 N15         1.6790   -3.3850    1.0510 n         1 MOL     -0.235182
    178 C54         2.0940   -4.7490    0.8580 c3        1 MOL     -0.123631
    179 H86         2.3500   -4.9050   -0.1900 h1        1 MOL      0.050673
    180 H87         2.9660   -4.9560    1.4790 h1        1 MOL      0.050673
    181 H88         1.2820   -5.4200    1.1370 h1        1 MOL      0.050673
    182 H89         0.8740   -3.1720    0.4850 hn        1 MOL      0.307780
    183 Ca1         0.4430    0.8520    1.2060 Ca        1 MOL      1.721787
    184 O25        -0.9930    0.2600    3.4020 oh        1 MOL     -0.978989
    185 H90        -1.3170    1.1500    3.5270 ho        1 MOL      0.451151
    186 H91        -0.8360   -0.0680    4.2880 ho        1 MOL      0.451151
    187 O26         3.0490    1.2230    1.7650 oh        1 MOL     -0.978989
    188 H92         3.6800    0.5600    1.4910 ho        1 MOL      0.451151
    189 H93         3.4870    2.0570    1.6120 ho        1 MOL      0.451151
@<TRIPOS>BOND
     1    1    2 1   
     2    1    4 1   
     3    1    5 1   
     4    1    6 1   
     5    2    3 2   
     6    2    7 1   
     7    7    8 1   
     8    7   15 1   
     9    8    9 1   
    10    8   11 1   
    11    8   16 1   
    12    9   10 2   
    13    9   19 1   
    14   11   12 1   
    15   11   17 1   
    16   11   18 1   
    17   12   13 1   
    18   12   14 1   
    19   19   20 1   
    20   19   28 1   
    21   20   21 1   
    22   20   23 1   
    23   20   29 1   
    24   21   22 2   
    25   21   41 1   
    26   23   24 1   
    27   23   30 1   
    28   23   31 1   
    29   24   25 1   
    30   24   32 1   
    31   24   33 1   
    32   25   26 1   
    33   25   34 1   
    34   25   35 1   
    35   26   27 1   
    36   26   36 1   
    37   26   37 1   
    38   27   38 1   
    39   27   39 1   
    40   27   40 1   
    41   41   42 1   
    42   41   49 1   
    43   42   43 1   
    44   42   45 1   
    45   42   50 1   
    46   43   44 2   
    47   43   53 1   
    48   45   46 1   
    49   45   51 1   
    50   45   52 1   
    51   46   47 1   
    52   46   48 1   
    53   53   54 1   
    54   53   57 1   
    55   54   55 1   
    56   54   58 1   
    57   54   59 1   
    58   55   56 2   
    59   55   60 1   
    60   60   61 1   
    61   60   68 1   
    62   61   62 1   
    63   61   64 1   
    64   61   69 1   
    65   62   63 2   
    66   62   72 1   
    67   64   65 1   
    68   64   70 1   
    69   64   71 1   
    70   65   66 1   
    71   65   67 1   
    72   72   73 1   
    73   72   76 1   
    74   73   74 1   
    75   73   77 1   
    76   73   78 1   
    77   74   75 2   
    78   74   79 1   
    79   79   80 1   
    80   79   86 1   
    81   80   81 1   
    82   80   83 1   
    83   80   87 1   
    84   81   82 2   
    85   81   93 1   
    86   83   84 1   
    87   83   85 1   
    88   83   88 1   
    89   84   90 1   
    90   84   91 1   
    91   84   92 1   
    92   85   89 1   
    93   93   94 1   
    94   93  101 1   
    95   94   95 1   
    96   94   97 1   
    97   94  102 1   
    98   95   96 2   
    99   95  112 1   
   100   97   98 1   
   101   97   99 1   
   102   97  103 1   
   103   98  100 1   
   104   98  104 1   
   105   98  105 1   
   106   99  106 1   
   107   99  107 1   
   108   99  108 1   
   109  100  109 1   
   110  100  110 1   
   111  100  111 1   
   112  112  113 1   
   113  112  119 1   
   114  113  114 1   
   115  113  116 1   
   116  113  120 1   
   117  114  115 2   
   118  114  126 1   
   119  116  117 1   
   120  116  118 1   
   121  116  121 1   
   122  117  123 1   
   123  117  124 1   
   124  117  125 1   
   125  118  122 1   
   126  126  127 1   
   127  126  133 1   
   128  127  128 1   
   129  127  130 1   
   130  127  134 1   
   131  128  129 2   
   132  128  140 1   
   133  130  131 1   
   134  130  132 1   
   135  130  135 1   
   136  131  137 1   
   137  131  138 1   
   138  131  139 1   
   139  132  136 1   
   140  140  141 1   
   141  140  149 1   
   142  141  142 1   
   143  141  144 1   
   144  141  150 1   
   145  142  143 2   
   146  142  162 1   
   147  144  145 1   
   148  144  151 1   
   149  144  152 1   
   150  145  146 1   
   151  145  153 1   
   152  145  154 1   
   153  146  147 1   
   154  146  155 1   
   155  146  156 1   
   156  147  148 1   
   157  147  157 1   
   158  147  158 1   
   159  148  159 1   
   160  148  160 1   
   161  148  161 1   
   162  162  163 1   
   163  162  171 1   
   164  163  164 1   
   165  163  166 1   
   166  163  172 1   
   167  164  165 2   
   168  164  177 1   
   169  166  167 1   
   170  166  173 1   
   171  166  174 1   
   172  167  168 1   
   173  167  175 1   
   174  167  176 1   
   175  168  169 1   
   176  168  170 1   
   177  177  178 1   
   178  177  182 1   
   179  178  179 1   
   180  178  180 1   
   181  178  181 1   
   182  184  185 1   
   183  184  186 1   
   184  187  188 1   
   185  187  189 1   
@<TRIPOS>SUBSTRUCTURE
     1 MOL         1 TEMP              0 ****  ****    0 ROOT
