@<TRIPOS>MOLECULE
MOL
  178   175     1     0     0
SMALL
resp


@<TRIPOS>ATOM
      1 C1          4.5770   -2.0660    2.8320 c3        1 MOL     -0.500370
      2 C2          5.7760   -1.1490    2.4600 c         1 MOL      0.691037
      3 O1          5.6050   -0.2530    1.6480 o         1 MOL     -0.589308
      4 H1          4.6640   -3.0110    2.2980 hc        1 MOL      0.137914
      5 H2          4.5840   -2.2540    3.9060 hc        1 MOL      0.137914
      6 H3          3.6440   -1.5760    2.5540 hc        1 MOL      0.137914
      7 N1          6.9940   -1.3910    2.8880 n         1 MOL     -0.573672
      8 C3          8.3030   -0.7570    2.5150 c3        1 MOL      0.234061
      9 C4          8.7640   -1.2280    1.1040 c         1 MOL      0.527312
     10 O2          9.1500   -2.3960    0.9570 o         1 MOL     -0.561709
     11 C5          9.3430   -1.0590    3.6380 c3        1 MOL     -0.348763
     12 C6         10.6890   -0.3200    3.4370 c         1 MOL      0.747035
     13 O3         11.6760   -0.6470    4.0940 o         1 MOL     -0.726436
     14 O4         10.8230    0.5670    2.5390 o         1 MOL     -0.726436
     15 H4          7.0500   -2.1940    3.5070 hn        1 MOL      0.291909
     16 H5          8.2080    0.3290    2.4150 h1        1 MOL     -0.001900
     17 H6          9.5400   -2.1270    3.7470 hc        1 MOL      0.068574
     18 H7          8.8680   -0.9450    4.6020 hc        1 MOL      0.068574
     19 N2          8.7370   -0.2990    0.1250 n         1 MOL     -0.428769
     20 C7          8.9880   -0.5470   -1.3380 c3        1 MOL      0.369579
     21 C8          7.6430   -0.7860   -2.0570 c         1 MOL      0.277260
     22 O5          7.6560   -1.0640   -3.2410 o         1 MOL     -0.506367
     23 C9          9.7900    0.6230   -1.9540 c3        1 MOL     -0.271727
     24 H8          8.3430    0.6070    0.3460 hn        1 MOL      0.249449
     25 H9          9.6210   -1.4290   -1.4300 h1        1 MOL      0.042566
     26 H10        10.5120    0.2410   -2.6760 hc        1 MOL      0.062043
     27 H11         9.0490    1.2620   -2.4360 hc        1 MOL      0.062043
     28 H12        10.2930    1.1030   -1.1100 hc        1 MOL      0.062043
     29 N3          6.4920   -0.7350   -1.3600 n         1 MOL     -0.415358
     30 C10         5.0810   -1.1460   -1.7190 c3        1 MOL      0.388183
     31 C11         4.6490   -0.6610   -3.0790 c         1 MOL      0.421444
     32 O6          4.5230   -1.3990   -4.0530 o         1 MOL     -0.478752
     33 C12         5.0750   -2.6820   -1.5550 c3        1 MOL     -0.114326
     34 C13         3.6630   -3.1850   -1.4920 c         1 MOL      0.775700
     35 O7          3.3530   -4.3710   -1.7130 o         1 MOL     -0.802585
     36 O8          2.7130   -2.4520   -1.1760 o         1 MOL     -0.802585
     37 H13         6.6310   -0.2210   -0.4960 hn        1 MOL      0.209385
     38 H14         4.4400   -0.6580   -0.9860 h1        1 MOL     -0.024618
     39 H15         5.6500   -3.0500   -0.6980 hc        1 MOL      0.024708
     40 H16         5.5260   -3.0950   -2.4580 hc        1 MOL      0.024708
     41 N4          4.5020    0.7360   -3.1780 n         1 MOL     -0.284471
     42 C14         4.3670    1.5190   -4.3770 c3        1 MOL     -0.112404
     43 C15         3.0250    2.3540   -4.4610 c         1 MOL      0.517293
     44 O9          2.9450    3.2100   -5.3910 o         1 MOL     -0.593441
     45 H17         4.7120    1.1760   -2.2920 hn        1 MOL      0.208668
     46 H18         4.4850    0.7940   -5.1770 h1        1 MOL      0.095243
     47 H19         5.1680    2.2470   -4.4900 h1        1 MOL      0.095243
     48 N5          2.0940    2.1510   -3.5120 n         1 MOL     -0.381576
     49 C16         0.8130    3.0110   -3.4810 c3        1 MOL      0.089540
     50 C17         1.1030    4.1940   -2.4920 c         1 MOL      0.414006
     51 O10         1.4770    3.9740   -1.3340 o         1 MOL     -0.464200
     52 C18        -0.3470    2.0900   -3.0270 c3        1 MOL     -0.386603
     53 C19        -1.6120    2.8770   -2.8040 c         1 MOL      0.596072
     54 N6         -1.8320    3.1970   -1.5990 n         1 MOL     -0.716156
     55 O11        -2.3250    3.2000   -3.7320 o         1 MOL     -0.588763
     56 H20         2.2260    1.5060   -2.7510 hn        1 MOL      0.235457
     57 H21         0.5300    3.3890   -4.4560 h1        1 MOL      0.085338
     58 H22        -0.1300    1.6430   -2.0510 hc        1 MOL      0.172818
     59 H23        -0.4900    1.4060   -3.8620 hc        1 MOL      0.172818
     60 H24        -1.1280    2.9920   -0.9070 hn        1 MOL      0.366460
     61 H25        -2.5770    3.8420   -1.3980 hn        1 MOL      0.366460
     62 N7          0.7030    5.3950   -2.9450 n         1 MOL     -0.272478
     63 C20         0.5830    6.6120   -2.1390 c3        1 MOL     -0.200028
     64 C21        -0.5710    6.6540   -1.0840 c         1 MOL      0.605010
     65 O12        -1.7120    6.7160   -1.4950 o         1 MOL     -0.511716
     66 H26         0.4320    5.4750   -3.9150 hn        1 MOL      0.277414
     67 H27         0.4050    7.4870   -2.7640 h1        1 MOL      0.094247
     68 H28         1.4800    6.6480   -1.5280 h1        1 MOL      0.094247
     69 N8         -0.2430    6.8150    0.1710 n         1 MOL     -0.496637
     70 C22        -1.2400    6.9330    1.2380 c3        1 MOL      0.063873
     71 C23        -1.8900    5.7030    1.7580 c         1 MOL      0.249415
     72 O13        -3.1280    5.6960    1.7600 o         1 MOL     -0.514930
     73 C24        -0.7340    7.7420    2.4630 c3        1 MOL      0.350307
     74 C25         0.4700    7.1980    3.2130 c3        1 MOL     -0.276561
     75 O14        -0.3910    8.9230    1.7990 oh        1 MOL     -0.621967
     76 H29         0.7170    6.8540    0.4650 hn        1 MOL      0.304466
     77 H30        -2.0430    7.5830    0.8810 h1        1 MOL      0.108152
     78 H31        -1.5100    7.9350    3.2100 h1        1 MOL      0.055687
     79 H32         0.4860    8.7740    1.4270 ho        1 MOL      0.362557
     80 H33         1.3760    6.9320    2.6740 hc        1 MOL      0.060058
     81 H34         0.8160    7.9250    3.9410 hc        1 MOL      0.060058
     82 H35         0.0580    6.3760    3.8140 hc        1 MOL      0.060058
     83 N9         -1.0960    4.6340    2.0270 n         1 MOL     -0.021483
     84 C26        -1.5860    3.3400    2.4290 c3        1 MOL      0.071461
     85 C27        -1.2200    2.2400    1.4740 c         1 MOL      0.287001
     86 O15        -0.2130    2.3480    0.7390 o         1 MOL     -0.479775
     87 C28        -1.0110    2.9770    3.7940 c3        1 MOL      0.291045
     88 C29         0.5230    3.0170    3.9470 c3        1 MOL     -0.079360
     89 C30        -1.7620    3.7320    4.8140 c3        1 MOL     -0.246393
     90 C31         0.9380    2.3430    5.3340 c3        1 MOL     -0.070539
     91 H36        -0.1160    4.6600    1.8040 hn        1 MOL      0.082761
     92 H37        -2.6720    3.2840    2.4350 h1        1 MOL      0.052263
     93 H38        -1.3860    1.9650    3.9330 hc        1 MOL     -0.055925
     94 H39         0.8000    4.0700    4.0070 hc        1 MOL      0.050450
     95 H40         1.0700    2.4560    3.1910 hc        1 MOL      0.050450
     96 H41        -1.6680    3.2070    5.7660 hc        1 MOL      0.034389
     97 H42        -1.3370    4.7340    4.8280 hc        1 MOL      0.034389
     98 H43        -2.8040    3.8200    4.4980 hc        1 MOL      0.034389
     99 H44         0.5730    2.9740    6.1420 hc        1 MOL      0.018064
    100 H45         0.5480    1.3300    5.4320 hc        1 MOL      0.018064
    101 H46         2.0260    2.2480    5.4040 hc        1 MOL      0.018064
    102 N10        -1.9110    1.0830    1.5240 n         1 MOL     -0.414002
    103 C32        -1.7970   -0.1050    0.6490 c3        1 MOL      0.199577
    104 C33        -3.1240   -0.4010   -0.0920 c         1 MOL      0.410528
    105 O16        -3.2910   -1.5240   -0.4430 o         1 MOL     -0.376582
    106 C34        -0.8750   -1.1800    1.3480 c3        1 MOL     -0.508553
    107 C35        -0.4750   -2.3060    0.4860 c         1 MOL      0.882858
    108 O17        -0.5010   -2.2360   -0.7570 o         1 MOL     -0.783242
    109 O18         0.0050   -3.3260    1.0470 o         1 MOL     -0.783242
    110 H47        -2.5940    1.0030    2.2580 hn        1 MOL      0.269399
    111 H48        -1.1800    0.2730   -0.1660 h1        1 MOL      0.085542
    112 H49        -1.3950   -1.5480    2.2250 hc        1 MOL      0.154801
    113 H50         0.0330   -0.6670    1.6670 hc        1 MOL      0.154801
    114 N11        -4.0200    0.5930   -0.2000 n         1 MOL     -0.444785
    115 C36        -5.3800    0.3710   -0.6790 c3        1 MOL      0.415610
    116 C37        -6.1210   -0.6330    0.1600 c         1 MOL     -0.007700
    117 O19        -6.0390   -0.4970    1.4110 o         1 MOL     -0.450497
    118 C38        -6.2040    1.6780   -0.8950 c3        1 MOL     -0.282265
    119 C39        -7.6540    1.4600   -1.1930 ca        1 MOL      0.076707
    120 C40        -8.1240    1.3950   -2.4830 ca        1 MOL     -0.115920
    121 C41        -8.5510    1.4600   -0.1160 ca        1 MOL     -0.115920
    122 C42        -9.5020    1.1360   -2.7060 ca        1 MOL     -0.152303
    123 C43        -9.9250    1.2200   -0.3280 ca        1 MOL     -0.152303
    124 C44       -10.3350    0.9360   -1.5920 ca        1 MOL     -0.076675
    125 H51        -3.8870    1.4290    0.3570 hn        1 MOL      0.215844
    126 H52        -5.2150   -0.2190   -1.5830 h1        1 MOL     -0.028021
    127 H53        -5.6840    2.2240   -1.6940 hc        1 MOL      0.112704
    128 H54        -6.2260    2.3090   -0.0160 hc        1 MOL      0.112704
    129 H55        -7.4540    1.5140   -3.3300 ha        1 MOL      0.126711
    130 H56        -8.2100    1.5360    0.9110 ha        1 MOL      0.126711
    131 H57        -9.9410    1.0120   -3.6860 ha        1 MOL      0.116454
    132 H58       -10.5980    1.0820    0.5080 ha        1 MOL      0.116454
    133 H59       -11.3390    0.5670   -1.7300 ha        1 MOL      0.092008
    134 N12        -6.8830   -1.6540   -0.3450 n         1 MOL      0.117778
    135 C45        -7.5550   -2.6330    0.5080 c3        1 MOL      0.069861
    136 C46        -6.6670   -3.5980    1.3680 c         1 MOL      0.263430
    137 O20        -7.0530   -4.0000    2.4390 o         1 MOL     -0.490848
    138 C47        -8.4260   -3.4420   -0.4440 c3        1 MOL      0.071732
    139 C48        -8.5180   -2.6450   -1.7610 c3        1 MOL     -0.240343
    140 C49        -7.1400   -1.9300   -1.7170 c3        1 MOL      0.032260
    141 H60        -8.1910   -2.0710    1.1980 h1        1 MOL      0.052983
    142 H61        -8.0390   -4.4210   -0.7170 hc        1 MOL      0.011097
    143 H62        -9.3720   -3.6560    0.0590 hc        1 MOL      0.011097
    144 H63        -8.6200   -3.3940   -2.5570 hc        1 MOL      0.069019
    145 H64        -9.3260   -1.9290   -1.6630 hc        1 MOL      0.069019
    146 H65        -6.4490   -2.5940   -2.2400 h1        1 MOL      0.025235
    147 H66        -7.2690   -0.9950   -2.2580 h1        1 MOL      0.025235
    148 N13        -5.3890   -3.8810    1.0080 n         1 MOL     -0.113142
    149 C50        -4.5320   -4.7360    1.8550 c3        1 MOL     -0.300709
    150 C51        -4.3080   -4.2270    3.2880 c         1 MOL      0.503584
    151 O21        -4.0550   -5.0500    4.1530 o         1 MOL     -0.541228
    152 C52        -3.2190   -4.8570    1.1780 c3        1 MOL      0.252678
    153 C53        -3.2630   -5.5100   -0.2530 c3        1 MOL     -0.334501
    154 C54        -1.8150   -5.5280   -0.7600 c         1 MOL      0.796321
    155 O22        -0.8670   -5.9900   -0.1030 o         1 MOL     -0.762511
    156 O23        -1.5210   -5.1580   -1.9260 o         1 MOL     -0.762511
    157 H67        -5.0230   -3.6130    0.1080 hn        1 MOL      0.161034
    158 H68        -5.0220   -5.7000    1.9910 h1        1 MOL      0.148762
    159 H69        -2.6910   -5.6020    1.7800 hc        1 MOL     -0.010181
    160 H70        -2.6660   -3.9390    1.0180 hc        1 MOL     -0.010181
    161 H71        -3.8940   -4.8980   -0.8880 hc        1 MOL      0.061842
    162 H72        -3.6920   -6.5080   -0.1370 hc        1 MOL      0.061842
    163 N14        -4.2870   -2.8910    3.4970 n         1 MOL     -0.099000
    164 C55        -3.9550   -2.3150    4.8120 c3        1 MOL     -0.435293
    165 H73        -3.5760   -1.3020    4.6800 h1        1 MOL      0.145584
    166 H74        -4.8500   -2.2890    5.4350 h1        1 MOL      0.145584
    167 H75        -3.1930   -2.9270    5.2950 h1        1 MOL      0.145584
    168 H76        -4.8230   -2.3200    2.8750 hn        1 MOL      0.192922
    169 Ca1         0.8770   -4.4520   -1.1090 Ca        1 MOL      1.748684
    170 O24         1.3370   -6.5260   -2.5050 oh        1 MOL     -0.777504
    171 H77         0.8800   -6.5500   -3.3470 ho        1 MOL      0.384394
    172 H78         2.2640   -6.6340   -2.7330 ho        1 MOL      0.384394
    173 O25         0.6650   -3.6380   -3.4700 oh        1 MOL     -0.777504
    174 H79         1.1930   -3.4140   -4.2300 ho        1 MOL      0.384394
    175 H80        -0.2370   -3.4700   -3.7440 ho        1 MOL      0.384394
    176 O26         1.9890   -5.9820    0.9270 oh        1 MOL     -0.777504
    177 H81         1.3630   -6.4230    1.5080 ho        1 MOL      0.384394
    178 H82         2.7780   -5.9000    1.4550 ho        1 MOL      0.384394
@<TRIPOS>BOND
     1    1    2 1   
     2    1    4 1   
     3    1    5 1   
     4    1    6 1   
     5    2    3 2   
     6    2    7 1   
     7    7    8 1   
     8    7   15 1   
     9    8    9 1   
    10    8   11 1   
    11    8   16 1   
    12    9   10 2   
    13    9   19 1   
    14   11   12 1   
    15   11   17 1   
    16   11   18 1   
    17   12   13 1   
    18   12   14 1   
    19   19   20 1   
    20   19   24 1   
    21   20   21 1   
    22   20   23 1   
    23   20   25 1   
    24   21   22 2   
    25   21   29 1   
    26   23   26 1   
    27   23   27 1   
    28   23   28 1   
    29   29   30 1   
    30   29   37 1   
    31   30   31 1   
    32   30   33 1   
    33   30   38 1   
    34   31   32 2   
    35   31   41 1   
    36   33   34 1   
    37   33   39 1   
    38   33   40 1   
    39   34   35 1   
    40   34   36 1   
    41   41   42 1   
    42   41   45 1   
    43   42   43 1   
    44   42   46 1   
    45   42   47 1   
    46   43   44 2   
    47   43   48 1   
    48   48   49 1   
    49   48   56 1   
    50   49   50 1   
    51   49   52 1   
    52   49   57 1   
    53   50   51 2   
    54   50   62 1   
    55   52   53 1   
    56   52   58 1   
    57   52   59 1   
    58   53   54 1   
    59   53   55 2   
    60   54   60 1   
    61   54   61 1   
    62   62   63 1   
    63   62   66 1   
    64   63   64 1   
    65   63   67 1   
    66   63   68 1   
    67   64   65 2   
    68   64   69 1   
    69   69   70 1   
    70   69   76 1   
    71   70   71 1   
    72   70   73 1   
    73   70   77 1   
    74   71   72 2   
    75   71   83 1   
    76   73   74 1   
    77   73   75 1   
    78   73   78 1   
    79   74   80 1   
    80   74   81 1   
    81   74   82 1   
    82   75   79 1   
    83   83   84 1   
    84   83   91 1   
    85   84   85 1   
    86   84   87 1   
    87   84   92 1   
    88   85   86 2   
    89   85  102 1   
    90   87   88 1   
    91   87   89 1   
    92   87   93 1   
    93   88   90 1   
    94   88   94 1   
    95   88   95 1   
    96   89   96 1   
    97   89   97 1   
    98   89   98 1   
    99   90   99 1   
   100   90  100 1   
   101   90  101 1   
   102  102  103 1   
   103  102  110 1   
   104  103  104 1   
   105  103  106 1   
   106  103  111 1   
   107  104  105 2   
   108  104  114 1   
   109  106  107 1   
   110  106  112 1   
   111  106  113 1   
   112  107  108 1   
   113  107  109 1   
   114  114  115 1   
   115  114  125 1   
   116  115  116 1   
   117  115  118 1   
   118  115  126 1   
   119  116  117 2   
   120  116  134 1   
   121  118  119 1   
   122  118  127 1   
   123  118  128 1   
   124  119  120 ar  
   125  119  121 ar  
   126  120  122 ar  
   127  120  129 1   
   128  121  123 ar  
   129  121  130 1   
   130  122  124 ar  
   131  122  131 1   
   132  123  124 ar  
   133  123  132 1   
   134  124  133 1   
   135  134  135 1   
   136  134  140 1   
   137  135  136 1   
   138  135  138 1   
   139  135  141 1   
   140  136  137 2   
   141  136  148 1   
   142  138  139 1   
   143  138  142 1   
   144  138  143 1   
   145  139  140 1   
   146  139  144 1   
   147  139  145 1   
   148  140  146 1   
   149  140  147 1   
   150  148  149 1   
   151  148  157 1   
   152  149  150 1   
   153  149  152 1   
   154  149  158 1   
   155  150  151 2   
   156  150  163 1   
   157  152  153 1   
   158  152  159 1   
   159  152  160 1   
   160  153  154 1   
   161  153  161 1   
   162  153  162 1   
   163  154  155 1   
   164  154  156 1   
   165  163  164 1   
   166  163  168 1   
   167  164  165 1   
   168  164  166 1   
   169  164  167 1   
   170  170  171 1   
   171  170  172 1   
   172  173  174 1   
   173  173  175 1   
   174  176  177 1   
   175  176  178 1   
@<TRIPOS>SUBSTRUCTURE
     1 MOL         1 TEMP              0 ****  ****    0 ROOT
