@<TRIPOS>MOLECULE
MOL
  181   177     1     0     0
SMALL
resp


@<TRIPOS>ATOM
      1 C1        -10.6590    5.4970    0.6110 c3        1 MOL     -0.240560
      2 C2         -9.4970    4.6500    0.1880 c         1 MOL      0.778133
      3 O1         -8.4780    5.1840   -0.2020 o         1 MOL     -0.603850
      4 H1        -10.3940    6.0550    1.5100 hc        1 MOL      0.048455
      5 H2        -10.9110    6.1940   -0.1880 hc        1 MOL      0.048455
      6 H3        -11.5180    4.8600    0.8210 hc        1 MOL      0.048455
      7 N1         -9.4900    3.3430    0.2130 n         1 MOL     -0.686046
      8 C3        -10.2790    2.4230    1.0040 c3        1 MOL      0.332782
      9 C4        -10.6480    1.1070    0.2700 c         1 MOL      0.267957
     10 O2        -10.2340    0.9020   -0.8460 o         1 MOL     -0.391166
     11 C5         -9.4670    2.1470    2.2630 c3        1 MOL     -0.286499
     12 C6         -8.3410    1.2120    2.0310 c         1 MOL      0.966290
     13 O3         -8.4120   -0.0270    2.2110 o         1 MOL     -0.813563
     14 O4         -7.1770    1.6970    1.9870 o         1 MOL     -0.813563
     15 H4         -8.7270    2.9800   -0.3380 hn        1 MOL      0.374112
     16 H5        -11.2070    2.9060    1.3280 h1        1 MOL     -0.008926
     17 H6        -10.0450    1.6860    3.0660 hc        1 MOL      0.052917
     18 H7         -9.0890    3.0800    2.6750 hc        1 MOL      0.052917
     19 N2        -11.2840    0.1870    0.9760 n         1 MOL     -0.386773
     20 C7        -11.6340   -1.1340    0.4680 c3        1 MOL      0.323006
     21 C8        -10.5410   -1.8350   -0.4390 c         1 MOL      0.284104
     22 O5        -10.9370   -2.4850   -1.4380 o         1 MOL     -0.514662
     23 C9        -12.9800   -0.9390   -0.1980 c3        1 MOL     -0.367521
     24 H8        -11.5980    0.5110    1.8830 hn        1 MOL      0.246734
     25 H9        -11.7510   -1.8590    1.2730 h1        1 MOL      0.004418
     26 H10       -13.6830   -0.4670    0.4970 hc        1 MOL      0.091902
     27 H11       -12.8910   -0.2460   -1.0220 hc        1 MOL      0.091902
     28 H12       -13.4240   -1.8590   -0.5870 hc        1 MOL      0.091902
     29 N3         -9.2310   -1.6600   -0.2230 n         1 MOL      0.065258
     30 C10        -8.2090   -2.3020   -1.0430 c3        1 MOL     -0.232012
     31 C11        -7.0840   -3.0620   -0.3050 c         1 MOL      0.517926
     32 O6         -7.0290   -3.1190    0.9160 o         1 MOL     -0.577241
     33 C12        -7.6230   -1.3760   -2.1100 c3        1 MOL     -0.014904
     34 C13        -7.0000   -0.1290   -1.6340 c         1 MOL      0.654960
     35 O7         -6.9050    0.7590   -2.4940 o         1 MOL     -0.679186
     36 O8         -6.5600   -0.1950   -0.4320 o         1 MOL     -0.679186
     37 H13        -9.0050   -1.1900    0.6410 hn        1 MOL     -0.000430
     38 H14        -8.7000   -3.0230   -1.7080 h1        1 MOL      0.071126
     39 H15        -8.4760   -1.0400   -2.7020 hc        1 MOL      0.028391
     40 H16        -6.9150   -1.9220   -2.7230 hc        1 MOL      0.028391
     41 N4         -6.1470   -3.6580   -1.0590 n         1 MOL     -0.294863
     42 C14        -4.9420   -4.2870   -0.4820 c3        1 MOL     -0.402623
     43 C15        -4.0120   -3.2640    0.1680 c         1 MOL      0.825462
     44 O9         -4.3850   -2.1640    0.5590 o         1 MOL     -0.759974
     45 H17        -6.2900   -3.7000   -2.0630 hn        1 MOL      0.292283
     46 H18        -4.4450   -4.9860   -1.1470 h1        1 MOL      0.166330
     47 H19        -5.2780   -4.8140    0.4160 h1        1 MOL      0.166330
     48 N5         -2.7500   -3.6010    0.1640 n         1 MOL     -0.372921
     49 C16        -1.6330   -3.0680    0.8090 c3        1 MOL     -0.172414
     50 C17        -0.9850   -1.8470    0.1140 c         1 MOL      0.708720
     51 O10         0.1690   -1.5020    0.4020 o         1 MOL     -0.530910
     52 C18        -0.5830   -4.2080    0.8800 c3        1 MOL     -0.428910
     53 C19        -0.1190   -4.7760   -0.3950 c         1 MOL      0.844838
     54 N6          0.6630   -4.1270   -1.2420 n         1 MOL     -0.778484
     55 O11        -0.2530   -5.9430   -0.6780 o         1 MOL     -0.613945
     56 H20        -2.5240   -4.5270   -0.1640 hn        1 MOL      0.193548
     57 H21        -2.0290   -2.8880    1.8080 h1        1 MOL      0.160693
     58 H22        -1.0230   -4.9850    1.5160 hc        1 MOL      0.143486
     59 H23         0.2990   -3.8220    1.3880 hc        1 MOL      0.143486
     60 H24         1.0750   -3.2190   -1.1170 hn        1 MOL      0.345304
     61 H25         1.0130   -4.5580   -2.0800 hn        1 MOL      0.345304
     62 N7         -1.6240   -1.3590   -0.9120 n         1 MOL     -0.790798
     63 C20        -1.1360   -0.2720   -1.7680 c3        1 MOL      0.550543
     64 C21        -1.5640    1.1260   -1.3620 c         1 MOL      0.351077
     65 O12        -2.0700    1.3930   -0.2540 o         1 MOL     -0.471785
     66 H26        -2.5970   -1.6310   -0.9270 hn        1 MOL      0.397419
     67 H27        -1.5400   -0.5250   -2.7400 h1        1 MOL     -0.016618
     68 H28        -0.0520   -0.2790   -1.7130 h1        1 MOL     -0.016618
     69 N8         -1.3910    2.1200   -2.2580 n         1 MOL     -0.434339
     70 C22        -0.8890    1.9750   -3.6270 c3        1 MOL      0.050681
     71 C23         0.5520    1.3030   -3.5970 c         1 MOL      0.311587
     72 O13         0.7380    0.1870   -4.0060 o         1 MOL     -0.563862
     73 C24        -0.8070    3.3250   -4.3470 c3        1 MOL      0.255389
     74 C25        -2.2120    3.7840   -4.6180 c3        1 MOL     -0.434856
     75 O14        -0.2120    4.2800   -3.5510 oh        1 MOL     -0.575399
     76 H29        -1.6900    3.0580   -2.0200 hn        1 MOL      0.310235
     77 H30        -1.4290    1.2780   -4.2690 h1        1 MOL      0.065901
     78 H31        -0.3070    3.2430   -5.3190 h1        1 MOL      0.022117
     79 H32        -0.3050    5.0960   -4.0560 ho        1 MOL      0.395577
     80 H33        -2.7940    3.7880   -3.6860 hc        1 MOL      0.117677
     81 H34        -2.2570    4.7390   -5.1470 hc        1 MOL      0.117677
     82 H35        -2.6130    2.9830   -5.2430 hc        1 MOL      0.117677
     83 N9          1.4450    1.9020   -2.8630 n         1 MOL     -0.059326
     84 C26         2.7410    1.3210   -2.4250 c3        1 MOL     -0.000668
     85 C27         2.6130    0.7460   -0.9920 c         1 MOL      0.465122
     86 O15         1.7580    1.2200   -0.2630 o         1 MOL     -0.511808
     87 C28         3.9350    2.3610   -2.5100 c3        1 MOL      0.052623
     88 C29         3.7020    3.5740   -1.5820 c3        1 MOL     -0.171661
     89 C30         4.0290    2.8560   -3.9570 c3        1 MOL     -0.048524
     90 C31         4.7470    4.6940   -1.6640 c3        1 MOL     -0.095384
     91 H36         1.1970    2.8260   -2.5370 hn        1 MOL      0.154682
     92 H37         3.1630    0.5510   -3.0580 h1        1 MOL      0.110149
     93 H38         4.8400    1.8310   -2.2320 hc        1 MOL      0.042372
     94 H39         3.7610    3.1760   -0.5690 hc        1 MOL      0.065004
     95 H40         2.6680    3.9180   -1.6670 hc        1 MOL      0.065004
     96 H41         4.9320    3.4560   -4.0240 hc        1 MOL     -0.006974
     97 H42         4.0710    2.0300   -4.6730 hc        1 MOL     -0.006974
     98 H43         3.1220    3.3930   -4.2470 hc        1 MOL     -0.006974
     99 H44         4.6130    5.4340   -2.4470 hc        1 MOL      0.031166
    100 H45         4.6360    5.3080   -0.7640 hc        1 MOL      0.031166
    101 H46         5.8000    4.4050   -1.7160 hc        1 MOL      0.031166
    102 N10         3.2770   -0.3980   -0.6560 n         1 MOL     -0.393111
    103 C32         4.2290   -1.1820   -1.4040 c3        1 MOL      0.036184
    104 C33         5.5090   -1.2680   -0.5880 c         1 MOL      0.676187
    105 O16         5.5210   -1.6910    0.5560 o         1 MOL     -0.557933
    106 C34         3.6450   -2.6100   -1.6690 c3        1 MOL     -0.223557
    107 C35         4.4690   -3.5300   -2.5030 c         1 MOL      0.735805
    108 O17         5.4240   -3.1320   -3.1660 o         1 MOL     -0.729493
    109 O18         4.1700   -4.7390   -2.5850 o         1 MOL     -0.729493
    110 H47         3.2090   -0.6300    0.3220 hn        1 MOL      0.289363
    111 H48         4.4330   -0.7830   -2.4000 h1        1 MOL      0.027308
    112 H49         2.6970   -2.4150   -2.1700 hc        1 MOL      0.065069
    113 H50         3.4780   -3.1910   -0.7560 hc        1 MOL      0.065069
    114 N11         6.6650   -0.9830   -1.2140 n         1 MOL     -0.679387
    115 C36         7.9780   -1.0740   -0.6380 c3        1 MOL      0.631633
    116 C37         8.9600    0.0480   -0.9490 c         1 MOL      0.205154
    117 O19         9.0010    0.4960   -2.0600 o         1 MOL     -0.508134
    118 C38         8.6250   -2.4110   -1.0690 c3        1 MOL     -0.217206
    119 C39         9.7890   -2.8450   -0.1470 ca        1 MOL      0.067426
    120 C40        11.0980   -2.6550   -0.5730 ca        1 MOL     -0.178301
    121 C41         9.4970   -3.4450    1.0900 ca        1 MOL     -0.178301
    122 C42        12.1580   -2.9860    0.3450 ca        1 MOL     -0.099602
    123 C43        10.5000   -3.7370    2.0060 ca        1 MOL     -0.099602
    124 C44        11.8410   -3.4070    1.6760 ca        1 MOL     -0.156461
    125 H51         6.6020   -0.6430   -2.1600 hn        1 MOL      0.283248
    126 H52         7.8430   -1.1140    0.4490 h1        1 MOL     -0.053700
    127 H53         8.9590   -2.4600   -2.1130 hc        1 MOL      0.087046
    128 H54         7.8050   -3.1190   -0.9590 hc        1 MOL      0.087046
    129 H55        11.2720   -2.1450   -1.5060 ha        1 MOL      0.136482
    130 H56         8.4520   -3.6420    1.3100 ha        1 MOL      0.136482
    131 H57        13.1810   -2.8450    0.0180 ha        1 MOL      0.101014
    132 H58        10.3580   -4.0250    3.0340 ha        1 MOL      0.101014
    133 H59        12.6160   -3.5720    2.4100 ha        1 MOL      0.106331
    134 N12         9.8690    0.4260   -0.0210 n         1 MOL      0.083549
    135 C45         9.8300    0.1570    1.4620 c3        1 MOL     -0.221290
    136 C46         8.8300    1.0040    2.2570 c         1 MOL      0.331581
    137 O20         8.6740    0.8300    3.4910 o         1 MOL     -0.472445
    138 C47        11.2870    0.3860    1.8890 c3        1 MOL      0.032306
    139 C48        11.7160    1.6170    1.0480 c3        1 MOL     -0.026204
    140 C49        11.1590    1.0650   -0.2960 c3        1 MOL     -0.197442
    141 H60         9.6390   -0.8760    1.7330 h1        1 MOL      0.190710
    142 H61        11.5020    0.4810    2.9540 hc        1 MOL      0.013234
    143 H62        11.8240   -0.5480    1.6960 hc        1 MOL      0.013234
    144 H63        11.3060    2.5840    1.3410 hc        1 MOL      0.038560
    145 H64        12.7780    1.7870    1.1780 hc        1 MOL      0.038560
    146 H65        10.9350    1.9540   -0.8860 h1        1 MOL      0.068753
    147 H66        11.8720    0.3600   -0.7240 h1        1 MOL      0.068753
    148 N13         8.1120    2.0340    1.6060 n         1 MOL     -0.359184
    149 C50         6.9300    2.8130    2.0970 c3        1 MOL      0.135467
    150 C51         6.8130    4.1460    1.3880 c         1 MOL      0.310396
    151 O21         7.5250    4.3390    0.4320 o         1 MOL     -0.551709
    152 C52         5.7100    1.9660    1.6360 c3        1 MOL      0.410358
    153 C53         5.1790    0.8560    2.4390 c3        1 MOL     -0.306134
    154 C54         4.6440    1.2630    3.8090 c         1 MOL      0.687884
    155 O22         3.5720    1.8900    3.8550 o         1 MOL     -0.725508
    156 O23         5.4110    1.0970    4.8050 o         1 MOL     -0.725508
    157 H67         8.5280    2.2590    0.7170 hn        1 MOL      0.269822
    158 H68         6.8930    2.9650    3.1680 h1        1 MOL      0.094364
    159 H69         5.9160    1.5530    0.6480 hc        1 MOL     -0.093435
    160 H70         4.8450    2.5870    1.4100 hc        1 MOL     -0.093435
    161 H71         6.0230    0.1620    2.4700 hc        1 MOL      0.039878
    162 H72         4.3650    0.4140    1.8650 hc        1 MOL      0.039878
    163 N14         6.1580    5.2110    1.8750 n         1 MOL     -0.280445
    164 C55         5.3550    5.2650    3.1120 c3        1 MOL     -0.134088
    165 H73         5.7350    6.0570    3.7570 h1        1 MOL      0.074817
    166 H74         4.3140    5.4710    2.8610 h1        1 MOL      0.074817
    167 H75         5.4220    4.3100    3.6320 h1        1 MOL      0.074817
    168 H76         6.2320    6.0210    1.2770 hn        1 MOL      0.251935
    169 Ca1        -5.9580   -0.8330    2.0910 Ca        1 MOL      1.752497
    170 O24        -6.0110   -3.2180    3.5120 oh        1 MOL     -0.804169
    171 H77        -6.4230   -4.0150    3.1800 ho        1 MOL      0.402395
    172 H78        -6.2330   -3.1980    4.4400 ho        1 MOL      0.402395
    173 O25        -6.3370    0.1270    4.6610 oh        1 MOL     -0.804169
    174 H79        -5.7560    0.7850    5.0390 ho        1 MOL      0.402395
    175 H80        -6.7120   -0.3240    5.4020 ho        1 MOL      0.402395
    176 O26        -4.6990    1.6170    2.2390 oh        1 MOL     -0.804169
    177 H81        -5.5410    2.0700    2.1600 ho        1 MOL      0.402395
    178 H82        -4.0820    2.1940    1.8000 ho        1 MOL      0.402395
    179 O27        -3.5280   -0.9750    3.2390 oh        1 MOL     -0.804169
    180 H83        -3.1160   -1.6070    3.8240 ho        1 MOL      0.402395
    181 H84        -2.8290   -0.3710    2.9980 ho        1 MOL      0.402395
@<TRIPOS>BOND
     1    1    2 1   
     2    1    4 1   
     3    1    5 1   
     4    1    6 1   
     5    2    3 2   
     6    2    7 1   
     7    7    8 1   
     8    7   15 1   
     9    8    9 1   
    10    8   11 1   
    11    8   16 1   
    12    9   10 2   
    13    9   19 1   
    14   11   12 1   
    15   11   17 1   
    16   11   18 1   
    17   12   13 1   
    18   12   14 1   
    19   19   20 1   
    20   19   24 1   
    21   20   21 1   
    22   20   23 1   
    23   20   25 1   
    24   21   22 2   
    25   21   29 1   
    26   23   26 1   
    27   23   27 1   
    28   23   28 1   
    29   29   30 1   
    30   29   37 1   
    31   30   31 1   
    32   30   33 1   
    33   30   38 1   
    34   31   32 2   
    35   31   41 1   
    36   33   34 1   
    37   33   39 1   
    38   33   40 1   
    39   34   35 1   
    40   34   36 1   
    41   41   42 1   
    42   41   45 1   
    43   42   43 1   
    44   42   46 1   
    45   42   47 1   
    46   43   44 2   
    47   43   48 1   
    48   48   49 1   
    49   48   56 1   
    50   49   50 1   
    51   49   52 1   
    52   49   57 1   
    53   50   51 2   
    54   50   62 1   
    55   52   53 1   
    56   52   58 1   
    57   52   59 1   
    58   53   54 1   
    59   53   55 2   
    60   54   60 1   
    61   54   61 1   
    62   62   63 1   
    63   62   66 1   
    64   63   64 1   
    65   63   67 1   
    66   63   68 1   
    67   64   65 2   
    68   64   69 1   
    69   69   70 1   
    70   69   76 1   
    71   70   71 1   
    72   70   73 1   
    73   70   77 1   
    74   71   72 2   
    75   71   83 1   
    76   73   74 1   
    77   73   75 1   
    78   73   78 1   
    79   74   80 1   
    80   74   81 1   
    81   74   82 1   
    82   75   79 1   
    83   83   84 1   
    84   83   91 1   
    85   84   85 1   
    86   84   87 1   
    87   84   92 1   
    88   85   86 2   
    89   85  102 1   
    90   87   88 1   
    91   87   89 1   
    92   87   93 1   
    93   88   90 1   
    94   88   94 1   
    95   88   95 1   
    96   89   96 1   
    97   89   97 1   
    98   89   98 1   
    99   90   99 1   
   100   90  100 1   
   101   90  101 1   
   102  102  103 1   
   103  102  110 1   
   104  103  104 1   
   105  103  106 1   
   106  103  111 1   
   107  104  105 2   
   108  104  114 1   
   109  106  107 1   
   110  106  112 1   
   111  106  113 1   
   112  107  108 1   
   113  107  109 1   
   114  114  115 1   
   115  114  125 1   
   116  115  116 1   
   117  115  118 1   
   118  115  126 1   
   119  116  117 2   
   120  116  134 1   
   121  118  119 1   
   122  118  127 1   
   123  118  128 1   
   124  119  120 ar  
   125  119  121 ar  
   126  120  122 ar  
   127  120  129 1   
   128  121  123 ar  
   129  121  130 1   
   130  122  124 ar  
   131  122  131 1   
   132  123  124 ar  
   133  123  132 1   
   134  124  133 1   
   135  134  135 1   
   136  134  140 1   
   137  135  136 1   
   138  135  138 1   
   139  135  141 1   
   140  136  137 2   
   141  136  148 1   
   142  138  139 1   
   143  138  142 1   
   144  138  143 1   
   145  139  140 1   
   146  139  144 1   
   147  139  145 1   
   148  140  146 1   
   149  140  147 1   
   150  148  149 1   
   151  148  157 1   
   152  149  150 1   
   153  149  152 1   
   154  149  158 1   
   155  150  151 2   
   156  150  163 1   
   157  152  153 1   
   158  152  159 1   
   159  152  160 1   
   160  153  154 1   
   161  153  161 1   
   162  153  162 1   
   163  154  155 1   
   164  154  156 1   
   165  163  164 1   
   166  163  168 1   
   167  164  165 1   
   168  164  166 1   
   169  164  167 1   
   170  170  171 1   
   171  170  172 1   
   172  173  174 1   
   173  173  175 1   
   174  176  177 1   
   175  176  178 1   
   176  179  180 1   
   177  179  181 1   
@<TRIPOS>SUBSTRUCTURE
     1 MOL         1 TEMP              0 ****  ****    0 ROOT
