@<TRIPOS>MOLECULE
MOL
  201   193     1     0     0
SMALL
resp


@<TRIPOS>ATOM
      1 C1          9.1440    6.7000   -3.7660 c3        1 MOL     -0.392278
      2 C2          9.5060    5.6520   -2.6890 c         1 MOL      0.694203
      3 O1         10.6850    5.1890   -2.6560 o         1 MOL     -0.602842
      4 H1          9.9770    6.8090   -4.4610 hc        1 MOL      0.101555
      5 H2          8.2580    6.3710   -4.3100 hc        1 MOL      0.101555
      6 H3          8.9440    7.6580   -3.2880 hc        1 MOL      0.101555
      7 N1          8.6090    5.3210   -1.7820 n         1 MOL     -0.584145
      8 C3          8.8010    4.2870   -0.7690 c3        1 MOL      0.239110
      9 C4          8.2920    2.9080   -1.1620 c         1 MOL      0.420849
     10 O2          7.3970    2.7830   -2.0150 o         1 MOL     -0.519701
     11 C5          8.0550    4.7000    0.5050 c3        1 MOL     -0.270418
     12 C6          8.5710    6.0900    1.0930 c         1 MOL      0.662195
     13 O3          9.7180    6.5370    0.8150 o         1 MOL     -0.617385
     14 O4          7.8960    6.6390    1.9910 o         1 MOL     -0.617385
     15 H4          7.6730    5.6820   -1.8640 hn        1 MOL      0.330540
     16 H5          9.8740    4.2480   -0.5890 h1        1 MOL      0.044199
     17 H6          8.2790    3.9180    1.2300 hc        1 MOL      0.057667
     18 H7          6.9900    4.7710    0.2790 hc        1 MOL      0.057667
     19 N2          8.7780    1.8660   -0.4160 n         1 MOL     -0.531752
     20 C7          8.3550    0.4790   -0.5510 c3        1 MOL      0.259939
     21 C8          7.0700    0.2620    0.2090 c         1 MOL      0.571059
     22 O5          7.0420   -0.6810    1.0520 o         1 MOL     -0.580600
     23 C9          9.5950   -0.4610   -0.2300 c3        1 MOL     -0.297905
     24 C10        10.7060   -0.2710   -1.2650 c3        1 MOL      0.192226
     25 C11        11.9540   -1.1360   -1.0430 c3        1 MOL      0.037659
     26 C12        13.0470   -1.0300   -2.1180 c3        1 MOL     -0.035049
     27 N3         14.0100   -2.1200   -1.9770 n4        1 MOL     -0.083490
     28 H8          9.3830    2.1040    0.3660 hn        1 MOL      0.325768
     29 H9          8.0070    0.3620   -1.5760 h1        1 MOL      0.029066
     30 H10         9.1610   -1.4580   -0.3400 hc        1 MOL      0.077019
     31 H11         9.9430   -0.3160    0.7850 hc        1 MOL      0.077019
     32 H12        10.9730    0.7860   -1.3520 hc        1 MOL     -0.028500
     33 H13        10.3240   -0.6450   -2.2110 hc        1 MOL     -0.028500
     34 H14        11.5760   -2.1540   -1.0580 hc        1 MOL      0.005223
     35 H15        12.3790   -0.9050   -0.0690 hc        1 MOL      0.005223
     36 H16        13.6360   -0.1290   -1.9090 hx        1 MOL      0.080938
     37 H17        12.5640   -1.0500   -3.0990 hx        1 MOL      0.080938
     38 H18        13.5120   -2.9520   -2.2570 hn        1 MOL      0.202704
     39 H19        14.7720   -2.0100   -2.6260 hn        1 MOL      0.202704
     40 H20        14.3720   -2.3170   -1.0520 hn        1 MOL      0.202704
     41 N4          6.0680    1.1000    0.0830 n         1 MOL     -0.594832
     42 C13         4.7560    1.0190    0.6430 c3        1 MOL      0.280247
     43 C14         4.0580   -0.3690    0.2920 c         1 MOL      0.413613
     44 O6          3.9380   -0.7360   -0.8390 o         1 MOL     -0.567215
     45 C15         3.9140    2.2640    0.3780 c3        1 MOL     -0.204864
     46 C16         2.5020    2.1650    0.9170 c         1 MOL      0.687334
     47 O7          1.6260    1.3300    0.5230 o         1 MOL     -0.696767
     48 O8          2.2180    2.9060    1.8990 o         1 MOL     -0.696767
     49 H21         6.1990    1.8350   -0.6080 hn        1 MOL      0.326276
     50 H22         4.8020    1.0460    1.7350 h1        1 MOL      0.051566
     51 H23         3.8190    2.6060   -0.6600 hc        1 MOL      0.064454
     52 H24         4.3780    3.1020    0.9050 hc        1 MOL      0.064454
     53 N5          3.4250   -1.1120    1.2000 n         1 MOL     -0.196497
     54 C17         3.3380   -0.9810    2.6440 c3        1 MOL     -0.343858
     55 C18         2.6690   -2.2630    3.2650 c         1 MOL      0.566564
     56 O9          3.0810   -3.3700    2.9410 o         1 MOL     -0.507350
     57 H25         2.8290   -1.8430    0.8390 hn        1 MOL      0.266310
     58 H26         2.7350   -0.1550    3.0400 h1        1 MOL      0.131783
     59 H27         4.3250   -0.8900    3.0800 h1        1 MOL      0.131783
     60 N6          1.6340   -1.9960    4.1460 n         1 MOL     -0.401679
     61 C19         0.9220   -3.0010    4.9550 c3        1 MOL      0.039821
     62 C20         0.2790   -4.0690    4.0140 c         1 MOL      0.525605
     63 O10        -0.5180   -3.6150    3.1580 o         1 MOL     -0.528209
     64 C21        -0.2510   -2.3380    5.7890 c3        1 MOL     -0.432290
     65 C22        -1.0270   -1.2110    4.9810 c         1 MOL      0.823573
     66 O11        -2.2390   -1.4460    4.6960 o         1 MOL     -0.751369
     67 O12        -0.5210   -0.1470    4.5550 o         1 MOL     -0.751369
     68 H28         1.3510   -1.0580    4.3700 hn        1 MOL      0.306470
     69 H29         1.5990   -3.6420    5.5260 h1        1 MOL      0.031207
     70 H30         0.2480   -1.8370    6.6120 hc        1 MOL      0.129591
     71 H31        -0.9740   -3.1020    6.0880 hc        1 MOL      0.129591
     72 N7          0.5270   -5.3720    4.1500 n         1 MOL     -0.283897
     73 C23         0.0220   -6.4350    3.2340 c3        1 MOL     -0.367553
     74 C24         0.2030   -6.3190    1.6720 c         1 MOL      0.613467
     75 O13        -0.2660   -7.2040    0.9480 o         1 MOL     -0.582712
     76 H32         1.3050   -5.5350    4.7660 hn        1 MOL      0.257591
     77 H33        -1.0410   -6.5250    3.4490 h1        1 MOL      0.159340
     78 H34         0.6460   -7.3060    3.4420 h1        1 MOL      0.159340
     79 N8          0.9030   -5.3320    1.2530 n         1 MOL     -0.058939
     80 C25         1.2250   -5.1290   -0.1590 c3        1 MOL     -0.344350
     81 C26         1.0510   -3.6520   -0.5950 c         1 MOL      0.584446
     82 O14         1.3770   -2.7700    0.1960 o         1 MOL     -0.507564
     83 C27         2.5750   -5.6330   -0.5920 c3        1 MOL      0.396957
     84 C28         3.7090   -5.2450    0.3980 c3        1 MOL     -0.329896
     85 O15         2.5990   -7.0800   -0.5920 oh        1 MOL     -0.613487
     86 H35         1.3350   -4.7080    1.9150 hn        1 MOL      0.175362
     87 H36         0.5010   -5.7490   -0.6870 h1        1 MOL      0.110987
     88 H37         2.8690   -5.3070   -1.5870 h1        1 MOL     -0.002231
     89 H38         3.3490   -7.3460   -1.1350 ho        1 MOL      0.373575
     90 H39         4.6440   -5.4780   -0.1170 hc        1 MOL      0.087071
     91 H40         3.6170   -4.1890    0.6290 hc        1 MOL      0.087071
     92 H41         3.6100   -5.7780    1.3500 hc        1 MOL      0.087071
     93 N9          0.6740   -3.4180   -1.8730 n         1 MOL     -0.341367
     94 C29         0.2830   -2.0770   -2.3490 c3        1 MOL     -0.194970
     95 C30        -1.1810   -1.8120   -2.2190 c         1 MOL      0.750240
     96 O16        -1.5680   -0.6710   -2.0250 o         1 MOL     -0.559632
     97 C31         0.7310   -1.8620   -3.8180 c3        1 MOL      0.050447
     98 C32         2.2740   -1.9020   -3.8840 c3        1 MOL      0.091943
     99 C33         0.2720   -0.5730   -4.5190 c3        1 MOL     -0.274015
    100 C34         2.9110   -2.0920   -5.2950 c3        1 MOL     -0.248224
    101 H42         0.4740   -4.2240   -2.4410 hn        1 MOL      0.239880
    102 H43         0.8450   -1.3070   -1.8050 h1        1 MOL      0.140720
    103 H44         0.3310   -2.6840   -4.4170 hc        1 MOL     -0.002528
    104 H45         2.6270   -2.7600   -3.3100 hc        1 MOL      0.036538
    105 H46         2.7420   -1.0650   -3.3480 hc        1 MOL      0.036538
    106 H47        -0.7960   -0.3780   -4.4620 hc        1 MOL      0.087019
    107 H48         0.8460    0.3180   -4.2370 hc        1 MOL      0.087019
    108 H49         0.4250   -0.6770   -5.5950 hc        1 MOL      0.087019
    109 H50         2.8790   -1.1680   -5.8690 hc        1 MOL      0.052365
    110 H51         3.9170   -2.4550   -5.0790 hc        1 MOL      0.052365
    111 H52         2.4700   -2.9130   -5.8650 hc        1 MOL      0.052365
    112 N10        -1.9820   -2.8760   -2.0870 n         1 MOL     -0.388832
    113 C35        -3.3600   -2.8100   -1.8630 c3        1 MOL     -0.430122
    114 C36        -4.2220   -2.4470   -3.0800 c         1 MOL      0.789721
    115 O17        -3.9430   -2.7120   -4.2440 o         1 MOL     -0.556923
    116 C37        -3.7950   -4.1930   -1.3110 c3        1 MOL      0.328993
    117 C38        -3.2590   -5.3970   -2.0930 c3        1 MOL     -0.499139
    118 O18        -3.0900   -4.3770   -0.0800 oh        1 MOL     -0.660274
    119 H53        -1.6030   -3.7870   -2.2870 hn        1 MOL      0.289848
    120 H54        -3.6060   -2.1370   -1.0450 h1        1 MOL      0.193343
    121 H55        -4.8700   -4.1800   -1.0960 h1        1 MOL      0.043304
    122 H56        -3.2580   -5.2980    0.1130 ho        1 MOL      0.424744
    123 H57        -2.1810   -5.4010   -1.9340 hc        1 MOL      0.150161
    124 H58        -3.7970   -6.2860   -1.7740 hc        1 MOL      0.150161
    125 H59        -3.3910   -5.3220   -3.1720 hc        1 MOL      0.150161
    126 N11        -5.3170   -1.7710   -2.8640 n         1 MOL     -0.653570
    127 C39        -6.2320   -1.2140   -3.8810 c3        1 MOL      0.045174
    128 C40        -6.7170    0.1910   -3.5960 c         1 MOL      0.694270
    129 O19        -6.8920    0.9880   -4.5290 o         1 MOL     -0.581159
    130 C41        -7.4030   -2.1300   -4.1450 c3        1 MOL      0.266979
    131 C42        -8.0400   -1.8170   -5.5210 c3        1 MOL     -0.338045
    132 O20        -8.4100   -1.9970   -3.2510 oh        1 MOL     -0.644761
    133 H60        -5.6180   -1.8310   -1.9050 hn        1 MOL      0.295307
    134 H61        -5.6340   -1.2050   -4.7910 h1        1 MOL      0.122605
    135 H62        -7.0870   -3.1650   -4.2780 h1        1 MOL      0.035110
    136 H63        -8.9640   -2.7840   -3.2610 ho        1 MOL      0.423750
    137 H64        -8.7640   -1.0080   -5.4450 hc        1 MOL      0.086196
    138 H65        -7.4250   -1.5440   -6.3810 hc        1 MOL      0.086196
    139 H66        -8.6530   -2.6870   -5.7950 hc        1 MOL      0.086196
    140 N12        -7.0100    0.6040   -2.3510 n         1 MOL     -0.609637
    141 C43        -7.2050    2.0610   -2.0080 c3        1 MOL      0.108624
    142 C44        -6.4380    2.3780   -0.6900 c         1 MOL      0.642839
    143 O21        -5.9490    1.3440   -0.1430 o         1 MOL     -0.614315
    144 C45        -8.7340    2.1800   -1.8230 c3        1 MOL     -0.135496
    145 C46        -9.2940    3.5670   -1.6590 c3        1 MOL      0.163912
    146 C47       -10.7700    3.7100   -1.8810 c3        1 MOL     -0.176223
    147 C48       -11.6210    2.6050   -1.1790 c3        1 MOL      0.115370
    148 N13       -13.1030    2.6910   -1.4240 n4        1 MOL     -0.292783
    149 H67        -6.9010   -0.0120   -1.5650 hn        1 MOL      0.348220
    150 H68        -6.8100    2.7270   -2.7680 h1        1 MOL      0.077461
    151 H69        -9.1000    1.5830   -0.9950 hc        1 MOL      0.060049
    152 H70        -9.2230    1.7970   -2.7210 hc        1 MOL      0.060049
    153 H71        -8.7210    4.2850   -2.2440 hc        1 MOL     -0.028525
    154 H72        -9.0620    3.8970   -0.6460 hc        1 MOL     -0.028525
    155 H73       -10.9420    3.7340   -2.9560 hc        1 MOL      0.064572
    156 H74       -11.0320    4.6980   -1.5110 hc        1 MOL      0.064572
    157 H75       -11.3980    2.7940   -0.1270 hx        1 MOL      0.061917
    158 H76       -11.3040    1.5890   -1.4000 hx        1 MOL      0.061917
    159 H77       -13.3630    2.6610   -2.3960 hn        1 MOL      0.278927
    160 H78       -13.5580    1.9500   -0.9160 hn        1 MOL      0.278927
    161 H79       -13.4780    3.6020   -1.1820 hn        1 MOL      0.278927
    162 N14        -6.3410    3.6270   -0.2820 n         1 MOL     -0.576057
    163 C49        -5.8450    3.9350    1.1040 c3        1 MOL      0.515481
    164 C50        -4.4180    3.3860    1.3820 c         1 MOL      0.232372
    165 O22        -4.1940    2.6610    2.3740 o         1 MOL     -0.514667
    166 C51        -6.1480    5.4040    1.4640 c3        1 MOL     -0.159210
    167 C52        -7.5490    5.6440    1.8940 c3        1 MOL     -0.220740
    168 C53        -7.9030    4.9350    3.2160 c         1 MOL      0.686346
    169 O23        -8.8020    4.0380    3.2910 o         1 MOL     -0.663023
    170 O24        -7.2840    5.2570    4.2830 o         1 MOL     -0.663023
    171 H80        -6.7280    4.3920   -0.8240 hn        1 MOL      0.279267
    172 H81        -6.5220    3.3580    1.7330 h1        1 MOL     -0.033102
    173 H82        -5.8340    6.0540    0.6400 hc        1 MOL      0.070597
    174 H83        -5.4460    5.6190    2.2770 hc        1 MOL      0.070597
    175 H84        -8.2360    5.3340    1.1010 hc        1 MOL      0.036420
    176 H85        -7.6050    6.7080    2.1310 hc        1 MOL      0.036420
    177 N15        -3.4030    3.8230    0.6680 n         1 MOL     -0.321797
    178 C54        -3.3280    4.8900   -0.3430 c3        1 MOL     -0.005021
    179 H86        -2.3530    4.8600   -0.8290 h1        1 MOL      0.038439
    180 H87        -4.1100    4.7410   -1.0870 h1        1 MOL      0.038439
    181 H88        -3.4640    5.8580    0.1390 h1        1 MOL      0.038439
    182 H89        -2.5170    3.3570    0.8230 hn        1 MOL      0.349145
    183 Ca1        -2.4310    0.2620    2.7850 Ca        1 MOL      1.802796
    184 O25        -2.5120   -2.2550    1.7950 oh        1 MOL     -0.867456
    185 H90        -1.9890   -2.8560    2.3280 ho        1 MOL      0.421880
    186 H91        -2.7680   -2.7680    1.0260 ho        1 MOL      0.421880
    187 O26        -4.9000   -1.0830    2.7580 oh        1 MOL     -0.867456
    188 H92        -5.6320   -0.9340    3.3520 ho        1 MOL      0.421880
    189 H93        -5.1870   -1.8150    2.2110 ho        1 MOL      0.421880
    190 O27        -0.8210    2.6620    2.2800 oh        1 MOL     -0.867456
    191 H94        -0.0000    2.8890    1.8630 ho        1 MOL      0.421880
    192 H95        -0.8410    3.1740    3.0860 ho        1 MOL      0.421880
    193 O28        -2.9580    0.5520    0.1580 oh        1 MOL     -0.867456
    194 H96        -2.4140    0.1530   -0.5180 ho        1 MOL      0.421880
    195 H97        -3.8500    0.4900   -0.1870 ho        1 MOL      0.421880
    196 O29        -0.3190   -0.3170    1.2310 oh        1 MOL     -0.867456
    197 H98         0.1400   -1.1080    0.9360 ho        1 MOL      0.421880
    198 H99         0.2310    0.4050    0.9210 ho        1 MOL      0.421880
    199 O30        -3.3310    1.6110    4.8180 oh        1 MOL     -0.867456
    200 H100       -3.3040    1.3280    5.7360 ho        1 MOL      0.421880
    201 H101       -3.7910    2.4530    4.8520 ho        1 MOL      0.421880
@<TRIPOS>BOND
     1    1    2 1   
     2    1    4 1   
     3    1    5 1   
     4    1    6 1   
     5    2    3 2   
     6    2    7 1   
     7    7    8 1   
     8    7   15 1   
     9    8    9 1   
    10    8   11 1   
    11    8   16 1   
    12    9   10 2   
    13    9   19 1   
    14   11   12 1   
    15   11   17 1   
    16   11   18 1   
    17   12   13 1   
    18   12   14 1   
    19   19   20 1   
    20   19   28 1   
    21   20   21 1   
    22   20   23 1   
    23   20   29 1   
    24   21   22 2   
    25   21   41 1   
    26   23   24 1   
    27   23   30 1   
    28   23   31 1   
    29   24   25 1   
    30   24   32 1   
    31   24   33 1   
    32   25   26 1   
    33   25   34 1   
    34   25   35 1   
    35   26   27 1   
    36   26   36 1   
    37   26   37 1   
    38   27   38 1   
    39   27   39 1   
    40   27   40 1   
    41   41   42 1   
    42   41   49 1   
    43   42   43 1   
    44   42   45 1   
    45   42   50 1   
    46   43   44 2   
    47   43   53 1   
    48   45   46 1   
    49   45   51 1   
    50   45   52 1   
    51   46   47 1   
    52   46   48 1   
    53   53   54 1   
    54   53   57 1   
    55   54   55 1   
    56   54   58 1   
    57   54   59 1   
    58   55   56 2   
    59   55   60 1   
    60   60   61 1   
    61   60   68 1   
    62   61   62 1   
    63   61   64 1   
    64   61   69 1   
    65   62   63 2   
    66   62   72 1   
    67   64   65 1   
    68   64   70 1   
    69   64   71 1   
    70   65   66 1   
    71   65   67 1   
    72   72   73 1   
    73   72   76 1   
    74   73   74 1   
    75   73   77 1   
    76   73   78 1   
    77   74   75 2   
    78   74   79 1   
    79   79   80 1   
    80   79   86 1   
    81   80   81 1   
    82   80   83 1   
    83   80   87 1   
    84   81   82 2   
    85   81   93 1   
    86   83   84 1   
    87   83   85 1   
    88   83   88 1   
    89   84   90 1   
    90   84   91 1   
    91   84   92 1   
    92   85   89 1   
    93   93   94 1   
    94   93  101 1   
    95   94   95 1   
    96   94   97 1   
    97   94  102 1   
    98   95   96 2   
    99   95  112 1   
   100   97   98 1   
   101   97   99 1   
   102   97  103 1   
   103   98  100 1   
   104   98  104 1   
   105   98  105 1   
   106   99  106 1   
   107   99  107 1   
   108   99  108 1   
   109  100  109 1   
   110  100  110 1   
   111  100  111 1   
   112  112  113 1   
   113  112  119 1   
   114  113  114 1   
   115  113  116 1   
   116  113  120 1   
   117  114  115 2   
   118  114  126 1   
   119  116  117 1   
   120  116  118 1   
   121  116  121 1   
   122  117  123 1   
   123  117  124 1   
   124  117  125 1   
   125  118  122 1   
   126  126  127 1   
   127  126  133 1   
   128  127  128 1   
   129  127  130 1   
   130  127  134 1   
   131  128  129 2   
   132  128  140 1   
   133  130  131 1   
   134  130  132 1   
   135  130  135 1   
   136  131  137 1   
   137  131  138 1   
   138  131  139 1   
   139  132  136 1   
   140  140  141 1   
   141  140  149 1   
   142  141  142 1   
   143  141  144 1   
   144  141  150 1   
   145  142  143 2   
   146  142  162 1   
   147  144  145 1   
   148  144  151 1   
   149  144  152 1   
   150  145  146 1   
   151  145  153 1   
   152  145  154 1   
   153  146  147 1   
   154  146  155 1   
   155  146  156 1   
   156  147  148 1   
   157  147  157 1   
   158  147  158 1   
   159  148  159 1   
   160  148  160 1   
   161  148  161 1   
   162  162  163 1   
   163  162  171 1   
   164  163  164 1   
   165  163  166 1   
   166  163  172 1   
   167  164  165 2   
   168  164  177 1   
   169  166  167 1   
   170  166  173 1   
   171  166  174 1   
   172  167  168 1   
   173  167  175 1   
   174  167  176 1   
   175  168  169 1   
   176  168  170 1   
   177  177  178 1   
   178  177  182 1   
   179  178  179 1   
   180  178  180 1   
   181  178  181 1   
   182  184  185 1   
   183  184  186 1   
   184  187  188 1   
   185  187  189 1   
   186  190  191 1   
   187  190  192 1   
   188  193  194 1   
   189  193  195 1   
   190  196  197 1   
   191  196  198 1   
   192  199  200 1   
   193  199  201 1   
@<TRIPOS>SUBSTRUCTURE
     1 MOL         1 TEMP              0 ****  ****    0 ROOT
