@<TRIPOS>MOLECULE
MOL
  181   177     1     0     0
SMALL
resp


@<TRIPOS>ATOM
      1 C1         -8.8690   -6.9570   -2.6970 c3        1 MOL     -0.382256
      2 C2         -7.7230   -6.1550   -1.9740 c         1 MOL      0.739326
      3 O1         -6.6290   -6.7090   -1.8520 o         1 MOL     -0.592096
      4 H1         -9.8160   -6.4330   -2.5680 hc        1 MOL      0.098352
      5 H2         -8.6410   -7.0380   -3.7600 hc        1 MOL      0.098352
      6 H3         -8.9430   -7.9550   -2.2640 hc        1 MOL      0.098352
      7 N1         -7.9020   -4.9660   -1.3190 n         1 MOL     -0.774158
      8 C3         -9.1630   -4.1860   -1.1820 c3        1 MOL      0.408570
      9 C4         -9.4030   -3.5850    0.1920 c         1 MOL      0.325169
     10 O2        -10.4720   -2.9900    0.4630 o         1 MOL     -0.543385
     11 C5         -9.2180   -3.1720   -2.3340 c3        1 MOL     -0.462294
     12 C6         -7.9990   -2.2410   -2.6170 c         1 MOL      0.845204
     13 O3         -8.0210   -1.6020   -3.6860 o         1 MOL     -0.716072
     14 O4         -7.0530   -2.2190   -1.8170 o         1 MOL     -0.716072
     15 H4         -7.0050   -4.5710   -1.0530 hn        1 MOL      0.408845
     16 H5         -9.9850   -4.9100   -1.3140 h1        1 MOL      0.036171
     17 H6        -10.1400   -2.6100   -2.2330 hc        1 MOL      0.084595
     18 H7         -9.3070   -3.8040   -3.2180 hc        1 MOL      0.084595
     19 N2         -8.4690   -3.8690    1.0830 n         1 MOL     -0.377337
     20 C7         -8.6360   -3.5180    2.5030 c3        1 MOL      0.249534
     21 C8         -8.3550   -2.0070    2.8330 c         1 MOL      0.212933
     22 O5         -8.3650   -1.6270    4.0240 o         1 MOL     -0.501716
     23 C9         -7.7750   -4.4920    3.3010 c3        1 MOL     -0.282485
     24 H8         -7.5780   -4.2510    0.7710 hn        1 MOL      0.263100
     25 H9         -9.6540   -3.7890    2.7840 h1        1 MOL      0.057440
     26 H10        -8.0100   -4.6450    4.3510 hc        1 MOL      0.084865
     27 H11        -7.9020   -5.4660    2.8370 hc        1 MOL      0.084865
     28 H12        -6.7790   -4.0990    3.1030 hc        1 MOL      0.084865
     29 N3         -7.9450   -1.2630    1.8120 n         1 MOL      0.025944
     30 C10        -7.5490    0.1210    2.0210 c3        1 MOL     -0.098447
     31 C11        -8.0690    0.9560    0.8190 c         1 MOL      0.376638
     32 O6         -8.2460    0.5150   -0.3690 o         1 MOL     -0.521060
     33 C12        -6.0330    0.2820    2.1610 c3        1 MOL     -0.075223
     34 C13        -5.2700   -0.5570    1.1550 c         1 MOL      0.572246
     35 O7         -4.4560   -1.4300    1.5760 o         1 MOL     -0.620165
     36 O8         -5.5260   -0.3960   -0.0590 o         1 MOL     -0.620165
     37 H13        -7.8580   -1.5810    0.8660 hn        1 MOL      0.163239
     38 H14        -7.9860    0.4920    2.9550 h1        1 MOL      0.058583
     39 H15        -5.8330   -0.1020    3.1650 hc        1 MOL      0.057089
     40 H16        -5.7460    1.3260    2.1060 hc        1 MOL      0.057089
     41 N4         -8.1340    2.2900    1.0680 n         1 MOL     -0.219216
     42 C14        -8.5550    3.1790    0.0900 c3        1 MOL     -0.394412
     43 C15        -7.2940    3.5970   -0.6760 c         1 MOL      0.406827
     44 O9         -6.7890    2.9200   -1.5380 o         1 MOL     -0.517686
     45 H17        -7.8760    2.6490    1.9690 hn        1 MOL      0.265735
     46 H18        -8.8990    4.0410    0.6510 h1        1 MOL      0.165290
     47 H19        -9.3880    2.7350   -0.4600 h1        1 MOL      0.165290
     48 N5         -6.8060    4.8120   -0.4680 n         1 MOL     -0.213262
     49 C16        -5.5170    5.2510   -0.9860 c3        1 MOL     -0.097130
     50 C17        -4.2210    4.6170   -0.3000 c         1 MOL      0.390230
     51 O10        -3.1730    4.5990   -0.9840 o         1 MOL     -0.423522
     52 C18        -5.4980    6.7730   -0.7730 c3        1 MOL     -0.168235
     53 C19        -4.5800    7.3200   -1.9040 c         1 MOL      0.546723
     54 N6         -5.0330    7.1930   -3.1510 n         1 MOL     -0.751102
     55 O11        -3.4620    7.7630   -1.6130 o         1 MOL     -0.464835
     56 H20        -7.3830    5.4510    0.0660 hn        1 MOL      0.220620
     57 H21        -5.5910    5.1420   -2.0730 h1        1 MOL      0.103011
     58 H22        -5.0150    6.9790    0.1840 hc        1 MOL      0.053691
     59 H23        -6.4910    7.2080   -0.8680 hc        1 MOL      0.053691
     60 H24        -5.9630    6.8350   -3.3160 hn        1 MOL      0.366377
     61 H25        -4.5570    7.7030   -3.8810 hn        1 MOL      0.366377
     62 N7         -4.3270    4.0690    0.8940 n         1 MOL     -0.148190
     63 C20        -3.2320    3.3990    1.6800 c3        1 MOL     -0.413143
     64 C21        -2.8580    2.0080    1.1680 c         1 MOL      0.802558
     65 O12        -3.3650    1.6120    0.1190 o         1 MOL     -0.650037
     66 H26        -5.1640    4.3350    1.4040 hn        1 MOL      0.205494
     67 H27        -3.5870    3.2440    2.6970 h1        1 MOL      0.173427
     68 H28        -2.4750    4.1780    1.6980 h1        1 MOL      0.173427
     69 N8         -1.9620    1.2320    1.8340 n         1 MOL     -0.518216
     70 C22        -1.2190    1.5990    3.0390 c3        1 MOL     -0.096482
     71 C23         0.2840    1.2660    3.0480 c         1 MOL      0.599249
     72 O13         0.9800    1.7950    3.9270 o         1 MOL     -0.577616
     73 C24        -1.9110    0.9210    4.2240 c3        1 MOL      0.250706
     74 C25        -3.3880    1.2440    4.5100 c3        1 MOL     -0.271366
     75 O14        -1.9420   -0.4830    3.8920 oh        1 MOL     -0.604190
     76 H29        -1.7940    0.3010    1.4730 hn        1 MOL      0.416263
     77 H30        -1.2680    2.6730    3.2030 h1        1 MOL      0.101344
     78 H31        -1.2410    1.0550    5.0760 h1        1 MOL      0.037790
     79 H32        -2.1220   -0.9270    4.7220 ho        1 MOL      0.408359
     80 H33        -4.0290    1.3950    3.6470 hc        1 MOL      0.051396
     81 H34        -3.8640    0.4880    5.1420 hc        1 MOL      0.051396
     82 H35        -3.5140    2.2100    5.0100 hc        1 MOL      0.051396
     83 N9          0.8420    0.4800    2.1150 n         1 MOL     -0.355535
     84 C26         2.3000    0.2920    2.0460 c3        1 MOL      0.033579
     85 C27         2.7530    0.4850    0.6200 c         1 MOL      0.563916
     86 O15         1.9320    0.4570   -0.2890 o         1 MOL     -0.567410
     87 C28         2.7180   -1.0130    2.5870 c3        1 MOL      0.150008
     88 C29         1.7980   -2.2200    2.1540 c3        1 MOL     -0.005794
     89 C30         2.6590   -0.9660    4.1330 c3        1 MOL     -0.377584
     90 C31         2.4850   -3.5340    2.3840 c3        1 MOL     -0.086954
     91 H36         0.2230    0.1440    1.3850 hn        1 MOL      0.194000
     92 H37         2.7620    1.0560    2.6820 h1        1 MOL      0.163422
     93 H38         3.7310   -1.2980    2.3140 hc        1 MOL      0.065300
     94 H39         1.5820   -2.1500    1.0800 hc        1 MOL     -0.005475
     95 H40         0.8700   -2.1800    2.7150 hc        1 MOL     -0.005475
     96 H41         3.0200   -1.9140    4.5240 hc        1 MOL      0.084165
     97 H42         3.2790   -0.1440    4.4670 hc        1 MOL      0.084165
     98 H43         1.6040   -0.7770    4.3460 hc        1 MOL      0.084165
     99 H44         3.5380   -3.6150    2.1180 hc        1 MOL      0.017217
    100 H45         2.4470   -3.7370    3.4550 hc        1 MOL      0.017217
    101 H46         1.9740   -4.3070    1.8100 hc        1 MOL      0.017217
    102 N10         4.0720    0.7530    0.3740 n         1 MOL     -0.601102
    103 C32         5.3130    0.8500    1.2690 c3        1 MOL      0.075550
    104 C33         6.5240    0.5200    0.3150 c         1 MOL      0.408786
    105 O16         6.3770    0.2110   -0.8680 o         1 MOL     -0.462616
    106 C34         5.3160    2.1880    1.9360 c3        1 MOL     -0.157777
    107 C35         4.6490    3.2810    1.0690 c         1 MOL      0.701294
    108 O17         5.0950    3.6940   -0.0700 o         1 MOL     -0.704279
    109 O18         3.7130    3.8840    1.6390 o         1 MOL     -0.704279
    110 H47         4.1730    1.0230   -0.5900 hn        1 MOL      0.351936
    111 H48         5.3350    0.0840    2.0370 h1        1 MOL      0.092217
    112 H49         6.3130    2.4940    2.2640 hc        1 MOL      0.009761
    113 H50         4.6800    2.0340    2.8010 hc        1 MOL      0.009761
    114 N11         7.7260    0.6850    0.9410 n         1 MOL     -0.599856
    115 C36         9.0590    0.8410    0.2440 c3        1 MOL      0.525857
    116 C37        10.0660   -0.1990    0.6810 c         1 MOL      0.101078
    117 O19        10.0370   -0.5330    1.8670 o         1 MOL     -0.455593
    118 C38         9.5970    2.3030    0.4920 c3        1 MOL     -0.171767
    119 C39        10.7730    2.6410   -0.3980 ca        1 MOL      0.229534
    120 C40        12.0230    2.5190    0.1680 ca        1 MOL     -0.337792
    121 C41        10.6570    2.8230   -1.7860 ca        1 MOL     -0.337792
    122 C42        13.1030    2.4300   -0.7010 ca        1 MOL      0.023785
    123 C43        11.7990    2.9310   -2.6030 ca        1 MOL      0.023785
    124 C44        13.0640    2.6620   -2.0610 ca        1 MOL     -0.220236
    125 H51         7.7310    0.8230    1.9310 hn        1 MOL      0.322070
    126 H52         8.8860    0.7730   -0.8230 h1        1 MOL      0.021651
    127 H53         9.7720    2.5360    1.5470 hc        1 MOL      0.060792
    128 H54         8.8530    3.0360    0.1970 hc        1 MOL      0.060792
    129 H55        12.1770    2.2710    1.2060 ha        1 MOL      0.172513
    130 H56         9.6960    3.0120   -2.2460 ha        1 MOL      0.172513
    131 H57        14.0660    2.3050   -0.2290 ha        1 MOL      0.071538
    132 H58        11.7300    3.4110   -3.5730 ha        1 MOL      0.071538
    133 H59        13.9600    2.7520   -2.6700 ha        1 MOL      0.108121
    134 N12        10.9950   -0.7290   -0.1150 n         1 MOL     -0.018466
    135 C45        10.9480   -0.8230   -1.5690 c3        1 MOL      0.236161
    136 C46         9.5240   -1.3830   -2.0550 c         1 MOL      0.281383
    137 O20         8.8590   -0.8900   -2.9980 o         1 MOL     -0.539385
    138 C47        12.0880   -1.7530   -1.8450 c3        1 MOL     -0.184605
    139 C48        13.0930   -1.5830   -0.7650 c3        1 MOL      0.287748
    140 C49        12.3600   -1.0680    0.4390 c3        1 MOL     -0.126104
    141 H60        11.0560    0.2050   -1.9040 h1        1 MOL     -0.015647
    142 H61        11.7340   -2.7840   -1.7460 hc        1 MOL      0.027087
    143 H62        12.4770   -1.3970   -2.7960 hc        1 MOL      0.027087
    144 H63        13.8030   -2.4050   -0.6700 hc        1 MOL     -0.070239
    145 H64        13.7690   -0.7480   -0.9840 hc        1 MOL     -0.070239
    146 H65        12.4190   -1.8370    1.2130 h1        1 MOL      0.052104
    147 H66        12.7740   -0.1630    0.8820 h1        1 MOL      0.052104
    148 N13         9.0110   -2.3590   -1.3560 n         1 MOL     -0.291238
    149 C50         7.6930   -2.9580   -1.5380 c3        1 MOL      0.373851
    150 C51         7.6580   -4.0260   -2.6560 c         1 MOL      0.245467
    151 O21         8.0180   -5.2330   -2.4720 o         1 MOL     -0.550382
    152 C52         7.1970   -3.6250   -0.2390 c3        1 MOL     -0.175609
    153 C53         6.8960   -2.6600    0.9970 c3        1 MOL     -0.020704
    154 C54         6.7520   -3.4500    2.2850 c         1 MOL      0.703976
    155 O22         7.3310   -3.0210    3.3100 o         1 MOL     -0.722586
    156 O23         6.0300   -4.4880    2.2630 o         1 MOL     -0.722586
    157 H67         9.5890   -2.8010   -0.6570 hn        1 MOL      0.238775
    158 H68         6.9390   -2.1930   -1.7290 h1        1 MOL      0.062843
    159 H69         7.9860   -4.3220    0.0470 hc        1 MOL      0.039250
    160 H70         6.3060   -4.1880   -0.5220 hc        1 MOL      0.039250
    161 H71         5.9750   -2.0990    0.8600 hc        1 MOL     -0.014826
    162 H72         7.7410   -1.9820    1.1440 hc        1 MOL     -0.014826
    163 N14         7.1720   -3.6970   -3.8530 n         1 MOL     -0.214810
    164 C55         6.5720   -2.4700   -4.4220 c3        1 MOL     -0.209401
    165 H73         5.7890   -2.1060   -3.7570 h1        1 MOL      0.095196
    166 H74         7.3410   -1.7040   -4.5290 h1        1 MOL      0.095196
    167 H75         6.1430   -2.6940   -5.3980 h1        1 MOL      0.095196
    168 H76         7.2190   -4.4210   -4.5620 hn        1 MOL      0.234634
    169 Ca1        -6.5020    0.3000   -2.3800 Ca        1 MOL      1.694569
    170 O24        -4.1760    1.5790   -2.3720 oh        1 MOL     -0.821594
    171 H77        -3.8480    2.3970   -2.7580 ho        1 MOL      0.405396
    172 H78        -3.8370    1.5940   -1.4750 ho        1 MOL      0.405396
    173 O25        -6.0040    0.9350   -5.0300 oh        1 MOL     -0.821594
    174 H79        -5.2580    0.4030   -5.2820 ho        1 MOL      0.405396
    175 H80        -6.0070    1.6610   -5.6640 ho        1 MOL      0.405396
    176 O26        -8.7880    1.2600   -3.2400 oh        1 MOL     -0.821594
    177 H81        -9.1030    2.1480   -3.0670 ho        1 MOL      0.405396
    178 H82        -9.5720    0.7570   -3.4400 ho        1 MOL      0.405396
    179 O27        -4.5750   -1.4280   -3.1610 oh        1 MOL     -0.821594
    180 H83        -4.0700   -1.5830   -3.9680 ho        1 MOL      0.405396
    181 H84        -3.9660   -1.6330   -2.4570 ho        1 MOL      0.405396
@<TRIPOS>BOND
     1    1    2 1   
     2    1    4 1   
     3    1    5 1   
     4    1    6 1   
     5    2    3 2   
     6    2    7 1   
     7    7    8 1   
     8    7   15 1   
     9    8    9 1   
    10    8   11 1   
    11    8   16 1   
    12    9   10 2   
    13    9   19 1   
    14   11   12 1   
    15   11   17 1   
    16   11   18 1   
    17   12   13 1   
    18   12   14 1   
    19   19   20 1   
    20   19   24 1   
    21   20   21 1   
    22   20   23 1   
    23   20   25 1   
    24   21   22 2   
    25   21   29 1   
    26   23   26 1   
    27   23   27 1   
    28   23   28 1   
    29   29   30 1   
    30   29   37 1   
    31   30   31 1   
    32   30   33 1   
    33   30   38 1   
    34   31   32 2   
    35   31   41 1   
    36   33   34 1   
    37   33   39 1   
    38   33   40 1   
    39   34   35 1   
    40   34   36 1   
    41   41   42 1   
    42   41   45 1   
    43   42   43 1   
    44   42   46 1   
    45   42   47 1   
    46   43   44 2   
    47   43   48 1   
    48   48   49 1   
    49   48   56 1   
    50   49   50 1   
    51   49   52 1   
    52   49   57 1   
    53   50   51 2   
    54   50   62 1   
    55   52   53 1   
    56   52   58 1   
    57   52   59 1   
    58   53   54 1   
    59   53   55 2   
    60   54   60 1   
    61   54   61 1   
    62   62   63 1   
    63   62   66 1   
    64   63   64 1   
    65   63   67 1   
    66   63   68 1   
    67   64   65 2   
    68   64   69 1   
    69   69   70 1   
    70   69   76 1   
    71   70   71 1   
    72   70   73 1   
    73   70   77 1   
    74   71   72 2   
    75   71   83 1   
    76   73   74 1   
    77   73   75 1   
    78   73   78 1   
    79   74   80 1   
    80   74   81 1   
    81   74   82 1   
    82   75   79 1   
    83   83   84 1   
    84   83   91 1   
    85   84   85 1   
    86   84   87 1   
    87   84   92 1   
    88   85   86 2   
    89   85  102 1   
    90   87   88 1   
    91   87   89 1   
    92   87   93 1   
    93   88   90 1   
    94   88   94 1   
    95   88   95 1   
    96   89   96 1   
    97   89   97 1   
    98   89   98 1   
    99   90   99 1   
   100   90  100 1   
   101   90  101 1   
   102  102  103 1   
   103  102  110 1   
   104  103  104 1   
   105  103  106 1   
   106  103  111 1   
   107  104  105 2   
   108  104  114 1   
   109  106  107 1   
   110  106  112 1   
   111  106  113 1   
   112  107  108 1   
   113  107  109 1   
   114  114  115 1   
   115  114  125 1   
   116  115  116 1   
   117  115  118 1   
   118  115  126 1   
   119  116  117 2   
   120  116  134 1   
   121  118  119 1   
   122  118  127 1   
   123  118  128 1   
   124  119  120 ar  
   125  119  121 ar  
   126  120  122 ar  
   127  120  129 1   
   128  121  123 ar  
   129  121  130 1   
   130  122  124 ar  
   131  122  131 1   
   132  123  124 ar  
   133  123  132 1   
   134  124  133 1   
   135  134  135 1   
   136  134  140 1   
   137  135  136 1   
   138  135  138 1   
   139  135  141 1   
   140  136  137 2   
   141  136  148 1   
   142  138  139 1   
   143  138  142 1   
   144  138  143 1   
   145  139  140 1   
   146  139  144 1   
   147  139  145 1   
   148  140  146 1   
   149  140  147 1   
   150  148  149 1   
   151  148  157 1   
   152  149  150 1   
   153  149  152 1   
   154  149  158 1   
   155  150  151 2   
   156  150  163 1   
   157  152  153 1   
   158  152  159 1   
   159  152  160 1   
   160  153  154 1   
   161  153  161 1   
   162  153  162 1   
   163  154  155 1   
   164  154  156 1   
   165  163  164 1   
   166  163  168 1   
   167  164  165 1   
   168  164  166 1   
   169  164  167 1   
   170  170  171 1   
   171  170  172 1   
   172  173  174 1   
   173  173  175 1   
   174  176  177 1   
   175  176  178 1   
   176  179  180 1   
   177  179  181 1   
@<TRIPOS>SUBSTRUCTURE
     1 MOL         1 TEMP              0 ****  ****    0 ROOT
