@<TRIPOS>MOLECULE
MOL
  178   175     1     0     0
SMALL
resp


@<TRIPOS>ATOM
      1 C1         -6.1210    7.6160    2.4040 c3        1 MOL     -0.401502
      2 C2         -6.8240    7.0560    1.1640 c         1 MOL      0.687276
      3 O1         -6.6010    7.4710    0.0010 o         1 MOL     -0.564385
      4 H1         -6.8600    7.8210    3.1790 hc        1 MOL      0.094712
      5 H2         -5.4000    6.8870    2.7750 hc        1 MOL      0.094712
      6 H3         -5.6040    8.5390    2.1440 hc        1 MOL      0.094712
      7 N1         -7.6600    6.0270    1.4840 n         1 MOL     -0.563785
      8 C3         -8.4160    5.2530    0.4220 c3        1 MOL      0.112788
      9 C4         -7.6190    4.3920   -0.5590 c         1 MOL      0.529097
     10 O2         -8.1610    3.8610   -1.5550 o         1 MOL     -0.484864
     11 C5         -9.5490    4.4350    1.0590 c3        1 MOL     -0.304244
     12 C6        -10.6160    4.0160    0.0150 c         1 MOL      0.687881
     13 O3        -11.1870    4.8820   -0.6960 o         1 MOL     -0.714557
     14 O4        -10.8580    2.7620   -0.0230 o         1 MOL     -0.714557
     15 H4         -7.5800    5.6580    2.4250 hn        1 MOL      0.299538
     16 H5         -8.8140    6.0710   -0.1770 h1        1 MOL      0.085001
     17 H6        -10.0290    4.8470    1.9520 hc        1 MOL      0.054352
     18 H7         -9.1170    3.5410    1.5080 hc        1 MOL      0.054352
     19 N2         -6.3330    4.2660   -0.2990 n         1 MOL     -0.521129
     20 C7         -5.4660    3.4890   -1.1790 c3        1 MOL      0.245452
     21 C8         -4.5060    2.5780   -0.3700 c         1 MOL      0.675307
     22 O5         -3.6300    3.0900    0.3720 o         1 MOL     -0.644071
     23 C9         -4.6340    4.5230   -1.9490 c3        1 MOL     -0.276297
     24 H8         -5.9720    4.6700    0.5460 hn        1 MOL      0.272888
     25 H9         -6.1380    2.9560   -1.8440 h1        1 MOL      0.053126
     26 H10        -3.7210    4.1890   -2.4250 hc        1 MOL      0.074773
     27 H11        -5.3650    4.8610   -2.6930 hc        1 MOL      0.074773
     28 H12        -4.3220    5.3670   -1.3380 hc        1 MOL      0.074773
     29 N3         -4.6240    1.2810   -0.4810 n         1 MOL     -0.733910
     30 C10        -5.4660    0.4210   -1.3660 c3        1 MOL      0.457179
     31 C11        -5.7570   -0.9130   -0.5080 c         1 MOL      0.374333
     32 O6         -5.1740   -1.1930    0.5300 o         1 MOL     -0.471589
     33 C12        -4.7480    0.1460   -2.6430 c3        1 MOL     -0.291963
     34 C13        -3.3640   -0.5650   -2.5400 c         1 MOL      0.785193
     35 O7         -2.9320   -0.7340   -1.3590 o         1 MOL     -0.678799
     36 O8         -2.6330   -0.6280   -3.5720 o         1 MOL     -0.678799
     37 H13        -3.8320    0.7610   -0.1330 hn        1 MOL      0.364905
     38 H14        -6.3970    0.9180   -1.6360 h1        1 MOL     -0.025500
     39 H15        -4.6410    1.0770   -3.1980 hc        1 MOL      0.028100
     40 H16        -5.5000   -0.5000   -3.0980 hc        1 MOL      0.028100
     41 N4         -6.7950   -1.5970   -0.9580 n         1 MOL     -0.497196
     42 C14        -7.0520   -2.9540   -0.5310 c3        1 MOL      0.226459
     43 C15        -6.8390   -4.0450   -1.5830 c         1 MOL      0.477532
     44 O9         -7.8070   -4.5260   -2.0820 o         1 MOL     -0.554774
     45 H17        -7.3020   -1.2250   -1.7480 hn        1 MOL      0.330919
     46 H18        -8.0650   -3.1330   -0.1830 h1        1 MOL      0.010588
     47 H19        -6.4230   -3.1610    0.3290 h1        1 MOL      0.010588
     48 N5         -5.6220   -4.3280   -2.0430 n         1 MOL     -0.415182
     49 C16        -4.3470   -3.9800   -1.4700 c3        1 MOL     -0.008416
     50 C17        -4.2140   -4.7050   -0.0770 c         1 MOL      0.510640
     51 O10        -4.3940   -5.9440   -0.0830 o         1 MOL     -0.560617
     52 C18        -3.2940   -4.4790   -2.4850 c3        1 MOL     -0.015872
     53 C19        -1.8650   -4.1190   -2.0650 c         1 MOL      0.417085
     54 N6         -0.8710   -4.5810   -2.8060 n         1 MOL     -0.567073
     55 O11        -1.6880   -3.4280   -1.0900 o         1 MOL     -0.558859
     56 H20        -5.5930   -4.9540   -2.8260 hn        1 MOL      0.284363
     57 H21        -4.2710   -2.9070   -1.2870 h1        1 MOL     -0.003896
     58 H22        -3.4350   -4.1580   -3.5230 hc        1 MOL      0.039139
     59 H23        -3.3200   -5.5670   -2.5540 hc        1 MOL      0.039139
     60 H24        -1.0480   -5.2710   -3.5270 hn        1 MOL      0.308479
     61 H25         0.0370   -4.4460   -2.3910 hn        1 MOL      0.308479
     62 N7         -3.8840   -4.0240    1.0280 n         1 MOL     -0.125772
     63 C20        -3.7620   -4.6110    2.3420 c3        1 MOL     -0.318252
     64 C21        -2.3300   -5.1000    2.6550 c         1 MOL      0.580966
     65 O12        -2.0400   -5.6560    3.7430 o         1 MOL     -0.599055
     66 H26        -3.5270   -3.0840    0.9720 hn        1 MOL      0.200433
     67 H27        -4.4130   -5.4760    2.4080 h1        1 MOL      0.130254
     68 H28        -4.0730   -3.8950    3.1030 h1        1 MOL      0.130254
     69 N8         -1.3900   -4.9180    1.7610 n         1 MOL     -0.287305
     70 C22         0.0680   -5.1680    1.9590 c3        1 MOL      0.007847
     71 C23         0.9280   -3.9280    1.8230 c         1 MOL      0.302616
     72 O13         0.6250   -3.0600    0.9870 o         1 MOL     -0.425412
     73 C24         0.6820   -6.3030    1.0470 c3        1 MOL      0.579530
     74 C25         0.2690   -7.6770    1.4380 c3        1 MOL     -0.361003
     75 O14         0.3740   -6.1200   -0.2980 oh        1 MOL     -0.777770
     76 H29        -1.6050   -4.7220    0.7910 hn        1 MOL      0.219921
     77 H30         0.3180   -5.5840    2.9340 h1        1 MOL      0.026150
     78 H31         1.7460   -6.2240    1.2820 h1        1 MOL     -0.059855
     79 H32         0.6170   -5.2900   -0.7140 ho        1 MOL      0.565802
     80 H33        -0.8020   -7.8200    1.2990 hc        1 MOL      0.081096
     81 H34         0.8590   -8.3660    0.8440 hc        1 MOL      0.081096
     82 H35         0.4850   -7.8880    2.4830 hc        1 MOL      0.081096
     83 N9          1.9920   -3.8150    2.6060 n         1 MOL     -0.361173
     84 C26         3.0250   -2.7800    2.4550 c3        1 MOL     -0.021302
     85 C27         3.8790   -3.1840    1.2360 c         1 MOL      0.208198
     86 O15         4.4410   -4.2920    1.1910 o         1 MOL     -0.539248
     87 C28         3.8070   -2.6480    3.7370 c3        1 MOL      0.092728
     88 C29         5.0250   -1.6900    3.6590 c3        1 MOL      0.117512
     89 C30         2.8490   -2.2240    4.8340 c3        1 MOL     -0.285565
     90 C31         4.6770   -0.3000    3.2060 c3        1 MOL     -0.428301
     91 H36         2.1270   -4.5320    3.3070 hn        1 MOL      0.291996
     92 H37         2.5360   -1.8540    2.1700 h1        1 MOL      0.200020
     93 H38         4.2000   -3.6380    4.0010 hc        1 MOL      0.011580
     94 H39         5.8320   -2.1030    3.0420 hc        1 MOL     -0.004067
     95 H40         5.5430   -1.7390    4.6250 hc        1 MOL     -0.004067
     96 H41         2.1380   -2.9940    5.1300 hc        1 MOL      0.071213
     97 H42         3.4210   -2.0880    5.7460 hc        1 MOL      0.071213
     98 H43         2.2210   -1.3730    4.5500 hc        1 MOL      0.071213
     99 H44         5.2730    0.4100    3.7840 hc        1 MOL      0.086764
    100 H45         4.8230   -0.2530    2.1220 hc        1 MOL      0.086764
    101 H46         3.6720    0.0400    3.4220 hc        1 MOL      0.086764
    102 N10         3.7970   -2.4260    0.1770 n         1 MOL      0.017507
    103 C32         4.3920   -2.6100   -1.1650 c3        1 MOL     -0.059320
    104 C33         5.5490   -1.6380   -1.5510 c         1 MOL      0.474733
    105 O16         6.1790   -1.8450   -2.5860 o         1 MOL     -0.522004
    106 C34         3.3270   -2.6520   -2.3180 c3        1 MOL     -0.127843
    107 C35         1.8770   -2.9740   -1.9830 c         1 MOL      0.874477
    108 O17         1.6000   -4.2090   -1.7780 o         1 MOL     -0.792750
    109 O18         0.9790   -2.0720   -2.0420 o         1 MOL     -0.792750
    110 H47         3.1740   -1.6390    0.2830 hn        1 MOL      0.192869
    111 H48         4.7620   -3.6390   -1.1840 h1        1 MOL      0.099637
    112 H49         3.6470   -3.2420   -3.1800 hc        1 MOL      0.031982
    113 H50         3.4010   -1.6310   -2.6940 hc        1 MOL      0.031982
    114 N11         5.8720   -0.5870   -0.7560 n         1 MOL     -0.573024
    115 C36         6.7660    0.4620   -1.1620 c3        1 MOL      0.613687
    116 C37         6.4220    1.8240   -0.5250 c         1 MOL      0.147604
    117 O19         6.2300    1.8470    0.6850 o         1 MOL     -0.454049
    118 C38         8.1870    0.0440   -0.8030 c3        1 MOL     -0.316675
    119 C39         9.2950    0.9200   -1.3370 ca        1 MOL      0.138342
    120 C40         9.6100    2.1420   -0.7320 ca        1 MOL     -0.157185
    121 C41        10.0050    0.5090   -2.4800 ca        1 MOL     -0.157185
    122 C42        10.5450    3.0650   -1.2500 ca        1 MOL     -0.122817
    123 C43        10.9970    1.3820   -3.0460 ca        1 MOL     -0.122817
    124 C44        11.1440    2.7160   -2.4970 ca        1 MOL     -0.142142
    125 H51         5.3610   -0.4600    0.1060 hn        1 MOL      0.319662
    126 H52         6.8350    0.6300   -2.2430 h1        1 MOL     -0.084203
    127 H53         8.4220   -0.9720   -1.1260 hc        1 MOL      0.096261
    128 H54         8.1960    0.0240    0.2830 hc        1 MOL      0.096261
    129 H55         8.9430    2.5340    0.0300 ha        1 MOL      0.124660
    130 H56         9.7830   -0.4600   -2.9100 ha        1 MOL      0.124660
    131 H57        10.7010    4.0600   -0.8590 ha        1 MOL      0.121547
    132 H58        11.4880    1.0040   -3.9350 ha        1 MOL      0.121547
    133 H59        11.7920    3.4380   -2.9680 ha        1 MOL      0.106626
    134 N12         6.4050    2.9650   -1.2950 n         1 MOL     -0.124928
    135 C45         6.4260    4.3670   -0.7570 c3        1 MOL      0.032714
    136 C46         5.2640    4.7690    0.1300 c         1 MOL      0.310980
    137 O20         5.3570    5.7890    0.8160 o         1 MOL     -0.507877
    138 C47         6.4800    5.1340   -2.0230 c3        1 MOL     -0.005051
    139 C48         7.2490    4.2800   -3.0800 c3        1 MOL     -0.134249
    140 C49         6.7400    2.9430   -2.6680 c3        1 MOL     -0.216444
    141 H60         7.3770    4.5570   -0.2540 h1        1 MOL      0.089432
    142 H61         5.4320    5.1110   -2.3320 hc        1 MOL      0.038340
    143 H62         6.8700    6.1390   -1.8610 hc        1 MOL      0.038340
    144 H63         6.9700    4.5630   -4.0940 hc        1 MOL      0.075638
    145 H64         8.3050    4.3810   -2.8380 hc        1 MOL      0.075638
    146 H65         5.8370    2.6860   -3.2340 h1        1 MOL      0.131576
    147 H66         7.6110    2.3290   -2.8770 h1        1 MOL      0.131576
    148 N13         4.1790    4.0130    0.2410 n         1 MOL     -0.126414
    149 C50         3.0070    4.2420    1.1360 c3        1 MOL     -0.238695
    150 C51         3.3670    4.4360    2.6410 c         1 MOL      0.653646
    151 O21         2.6560    5.2100    3.2910 o         1 MOL     -0.553226
    152 C52         2.1150    2.9890    0.8770 c3        1 MOL     -0.133967
    153 C53         2.6480    1.7060    1.5230 c3        1 MOL     -0.179701
    154 C54         1.7840    0.5000    1.0350 c         1 MOL      0.803947
    155 O22         2.2370   -0.2660    0.0360 o         1 MOL     -0.800820
    156 O23         0.7390    0.0940    1.5400 o         1 MOL     -0.800820
    157 H67         4.1790    3.1880   -0.3290 hn        1 MOL      0.200006
    158 H68         2.5720    5.1420    0.6960 h1        1 MOL      0.153457
    159 H69         1.8790    2.9440   -0.1780 hc        1 MOL      0.080685
    160 H70         1.2120    3.1800    1.4480 hc        1 MOL      0.080685
    161 H71         2.5600    1.8670    2.6020 hc        1 MOL      0.069147
    162 H72         3.6410    1.5760    1.0880 hc        1 MOL      0.069147
    163 N14         4.4810    3.9550    3.2600 n         1 MOL     -0.338516
    164 C55         4.9630    4.4480    4.5850 c3        1 MOL     -0.103300
    165 H73         4.1080    4.7260    5.2020 h1        1 MOL      0.077715
    166 H74         5.5280    3.6590    5.0820 h1        1 MOL      0.077715
    167 H75         5.6030    5.3170    4.4390 h1        1 MOL      0.077715
    168 H76         5.0920    3.4310    2.6540 hn        1 MOL      0.253196
    169 Ca1        -0.5380   -1.1380   -0.2490 Ca        1 MOL      1.699089
    170 O24        -1.8520    1.1300    1.0040 oh        1 MOL     -0.808227
    171 H77        -1.1930    1.2470    1.6890 ho        1 MOL      0.393209
    172 H78        -2.3660    1.9430    1.0240 ho        1 MOL      0.393209
    173 O25        -0.0890    1.0540   -1.7580 oh        1 MOL     -0.808227
    174 H79         0.8040    1.3900   -1.7100 ho        1 MOL      0.393209
    175 H80        -0.2900    1.0200   -2.6960 ho        1 MOL      0.393209
    176 O26        -2.4780   -1.5120    1.5930 oh        1 MOL     -0.808227
    177 H81        -2.2590   -1.1060    2.4320 ho        1 MOL      0.393209
    178 H82        -3.3220   -1.1250    1.3520 ho        1 MOL      0.393209
@<TRIPOS>BOND
     1    1    2 1   
     2    1    4 1   
     3    1    5 1   
     4    1    6 1   
     5    2    3 2   
     6    2    7 1   
     7    7    8 1   
     8    7   15 1   
     9    8    9 1   
    10    8   11 1   
    11    8   16 1   
    12    9   10 2   
    13    9   19 1   
    14   11   12 1   
    15   11   17 1   
    16   11   18 1   
    17   12   13 1   
    18   12   14 1   
    19   19   20 1   
    20   19   24 1   
    21   20   21 1   
    22   20   23 1   
    23   20   25 1   
    24   21   22 2   
    25   21   29 1   
    26   23   26 1   
    27   23   27 1   
    28   23   28 1   
    29   29   30 1   
    30   29   37 1   
    31   30   31 1   
    32   30   33 1   
    33   30   38 1   
    34   31   32 2   
    35   31   41 1   
    36   33   34 1   
    37   33   39 1   
    38   33   40 1   
    39   34   35 1   
    40   34   36 1   
    41   41   42 1   
    42   41   45 1   
    43   42   43 1   
    44   42   46 1   
    45   42   47 1   
    46   43   44 2   
    47   43   48 1   
    48   48   49 1   
    49   48   56 1   
    50   49   50 1   
    51   49   52 1   
    52   49   57 1   
    53   50   51 2   
    54   50   62 1   
    55   52   53 1   
    56   52   58 1   
    57   52   59 1   
    58   53   54 1   
    59   53   55 2   
    60   54   60 1   
    61   54   61 1   
    62   62   63 1   
    63   62   66 1   
    64   63   64 1   
    65   63   67 1   
    66   63   68 1   
    67   64   65 2   
    68   64   69 1   
    69   69   70 1   
    70   69   76 1   
    71   70   71 1   
    72   70   73 1   
    73   70   77 1   
    74   71   72 2   
    75   71   83 1   
    76   73   74 1   
    77   73   75 1   
    78   73   78 1   
    79   74   80 1   
    80   74   81 1   
    81   74   82 1   
    82   75   79 1   
    83   83   84 1   
    84   83   91 1   
    85   84   85 1   
    86   84   87 1   
    87   84   92 1   
    88   85   86 2   
    89   85  102 1   
    90   87   88 1   
    91   87   89 1   
    92   87   93 1   
    93   88   90 1   
    94   88   94 1   
    95   88   95 1   
    96   89   96 1   
    97   89   97 1   
    98   89   98 1   
    99   90   99 1   
   100   90  100 1   
   101   90  101 1   
   102  102  103 1   
   103  102  110 1   
   104  103  104 1   
   105  103  106 1   
   106  103  111 1   
   107  104  105 2   
   108  104  114 1   
   109  106  107 1   
   110  106  112 1   
   111  106  113 1   
   112  107  108 1   
   113  107  109 1   
   114  114  115 1   
   115  114  125 1   
   116  115  116 1   
   117  115  118 1   
   118  115  126 1   
   119  116  117 2   
   120  116  134 1   
   121  118  119 1   
   122  118  127 1   
   123  118  128 1   
   124  119  120 ar  
   125  119  121 ar  
   126  120  122 ar  
   127  120  129 1   
   128  121  123 ar  
   129  121  130 1   
   130  122  124 ar  
   131  122  131 1   
   132  123  124 ar  
   133  123  132 1   
   134  124  133 1   
   135  134  135 1   
   136  134  140 1   
   137  135  136 1   
   138  135  138 1   
   139  135  141 1   
   140  136  137 2   
   141  136  148 1   
   142  138  139 1   
   143  138  142 1   
   144  138  143 1   
   145  139  140 1   
   146  139  144 1   
   147  139  145 1   
   148  140  146 1   
   149  140  147 1   
   150  148  149 1   
   151  148  157 1   
   152  149  150 1   
   153  149  152 1   
   154  149  158 1   
   155  150  151 2   
   156  150  163 1   
   157  152  153 1   
   158  152  159 1   
   159  152  160 1   
   160  153  154 1   
   161  153  161 1   
   162  153  162 1   
   163  154  155 1   
   164  154  156 1   
   165  163  164 1   
   166  163  168 1   
   167  164  165 1   
   168  164  166 1   
   169  164  167 1   
   170  170  171 1   
   171  170  172 1   
   172  173  174 1   
   173  173  175 1   
   174  176  177 1   
   175  176  178 1   
@<TRIPOS>SUBSTRUCTURE
     1 MOL         1 TEMP              0 ****  ****    0 ROOT
