@<TRIPOS>MOLECULE
MOL
  186   183     1     0     0
SMALL
resp


@<TRIPOS>ATOM
      1 C1         11.4360    3.9870   -4.2220 c3        1 MOL     -0.314315
      2 C2         11.5250    3.0470   -2.9790 c         1 MOL      0.494127
      3 O1         12.1650    1.9530   -2.9490 o         1 MOL     -0.527095
      4 H1         10.4390    3.9200   -4.6560 hc        1 MOL      0.086291
      5 H2         11.6300    5.0150   -3.9150 hc        1 MOL      0.086291
      6 H3         12.1760    3.6820   -4.9620 hc        1 MOL      0.086291
      7 N1         10.9520    3.5420   -1.8930 n         1 MOL      0.047046
      8 C3         10.8800    2.9000   -0.5910 c3        1 MOL     -0.740434
      9 C4          9.8100    1.7320   -0.5910 c         1 MOL      0.462552
     10 O2          8.9780    1.6250   -1.5300 o         1 MOL     -0.494135
     11 C5         10.6590    3.8770    0.5820 c3        1 MOL      0.307831
     12 C6          9.6610    5.0310    0.2660 c         1 MOL      0.712103
     13 O3          8.7280    4.8510   -0.5650 o         1 MOL     -0.714860
     14 O4          9.8020    6.0590    0.9090 o         1 MOL     -0.714860
     15 H4         10.3680    4.3720   -1.9490 hn        1 MOL      0.048137
     16 H5         11.8890    2.5370   -0.3650 h1        1 MOL      0.213420
     17 H6         11.6550    4.3180    0.6270 hc        1 MOL     -0.011224
     18 H7         10.4910    3.4220    1.5620 hc        1 MOL     -0.011224
     19 N2          9.7980    0.9040    0.4250 n         1 MOL     -0.003893
     20 C7          9.0500   -0.3290    0.4720 c3        1 MOL     -0.336087
     21 C8          7.5430   -0.2250    0.3270 c         1 MOL      0.500038
     22 O5          6.9880   -1.2070   -0.1300 o         1 MOL     -0.494773
     23 C9          9.3770   -1.1130    1.7600 c3        1 MOL     -0.015281
     24 C10         8.7370   -0.4790    3.0410 c3        1 MOL      0.105540
     25 C11         9.1980   -1.3000    4.2150 c3        1 MOL     -0.025861
     26 C12         8.5830   -0.7050    5.5320 c3        1 MOL     -0.007200
     27 N3          7.1250   -1.0700    5.7580 n4        1 MOL     -0.255133
     28 H8         10.5140    0.9960    1.1330 hn        1 MOL      0.188773
     29 H9          9.3450   -0.8840   -0.4170 h1        1 MOL      0.151361
     30 H10        10.4680   -1.0730    1.7400 hc        1 MOL      0.057190
     31 H11         9.1270   -2.1700    1.6820 hc        1 MOL      0.057190
     32 H12         7.6480   -0.5310    3.0260 hc        1 MOL     -0.032362
     33 H13         9.1850    0.5140    3.0470 hc        1 MOL     -0.032362
     34 H14        10.2950   -1.2990    4.1810 hc        1 MOL      0.048561
     35 H15         8.9690   -2.3510    4.0450 hc        1 MOL      0.048561
     36 H16         8.6450    0.3860    5.5340 hx        1 MOL      0.081996
     37 H17         9.1370   -1.0620    6.4040 hx        1 MOL      0.081996
     38 H18         6.5340   -0.4400    5.2370 hn        1 MOL      0.303040
     39 H19         6.9160   -2.0330    5.5410 hn        1 MOL      0.303040
     40 H20         6.7690   -1.1250    6.7020 hn        1 MOL      0.303040
     41 N4          6.9900    0.8920    0.6710 n         1 MOL      0.366062
     42 C13         5.5520    0.9710    0.7800 c3        1 MOL     -1.085113
     43 C14         4.8680    1.3350   -0.5640 c         1 MOL      0.813439
     44 O6          5.4420    2.0570   -1.3760 o         1 MOL     -0.720198
     45 C15         5.1690    1.8220    1.9450 c3        1 MOL     -0.029916
     46 C16         5.8900    3.1890    1.9420 c         1 MOL      0.680615
     47 O7          5.9870    3.6860    3.0670 o         1 MOL     -0.670300
     48 O8          6.2650    3.7490    0.8950 o         1 MOL     -0.670300
     49 H21         7.5710    1.6850    0.8900 hn        1 MOL     -0.017660
     50 H22         5.1950   -0.0200    1.0650 h1        1 MOL      0.408782
     51 H23         5.5340    1.2700    2.8040 hc        1 MOL      0.067652
     52 H24         4.1010    1.9580    2.1230 hc        1 MOL      0.067652
     53 N5          3.6930    0.8320   -1.0090 n         1 MOL     -0.511540
     54 C17         2.9030   -0.2030   -0.2870 c3        1 MOL     -0.076937
     55 C18         3.4400   -1.5660   -0.1500 c         1 MOL      0.757779
     56 O9          3.7820   -2.2070   -1.1510 o         1 MOL     -0.507999
     57 H25         3.5510    1.0120   -1.9930 hn        1 MOL      0.327596
     58 H26         1.9770   -0.3050   -0.8500 h1        1 MOL      0.090686
     59 H27         2.6860    0.1840    0.7120 h1        1 MOL      0.090686
     60 N6          3.6040   -2.1160    1.0850 n         1 MOL     -0.709631
     61 C19         4.1780   -3.3760    1.3220 c3        1 MOL      0.132389
     62 C20         3.2160   -4.5380    1.1580 c         1 MOL      0.641853
     63 O10         2.1120   -4.5420    1.7680 o         1 MOL     -0.566206
     64 C21         4.9690   -3.3950    2.6540 c3        1 MOL     -0.171281
     65 C22         5.8200   -4.6560    2.8690 c         1 MOL      0.647396
     66 O11         5.7670   -5.3020    3.9320 o         1 MOL     -0.686308
     67 O12         6.7330   -4.9760    2.0180 o         1 MOL     -0.686308
     68 H28         3.1150   -1.7260    1.8880 hn        1 MOL      0.326563
     69 H29         4.9600   -3.4130    0.5680 h1        1 MOL      0.004990
     70 H30         4.2770   -3.4270    3.5000 hc        1 MOL     -0.006654
     71 H31         5.6120   -2.5350    2.8060 hc        1 MOL     -0.006654
     72 N7          3.5420   -5.5840    0.4080 n         1 MOL     -0.339325
     73 C23         2.6690   -6.7430    0.2340 c3        1 MOL     -0.170259
     74 C24         1.3840   -6.5010   -0.6570 c         1 MOL      0.461395
     75 O13         0.5280   -7.3250   -0.9180 o         1 MOL     -0.553608
     76 H32         4.4230   -5.5490   -0.0990 hn        1 MOL      0.273929
     77 H33         2.4090   -7.0880    1.2360 h1        1 MOL      0.127028
     78 H34         3.1960   -7.5870   -0.2220 h1        1 MOL      0.127028
     79 N8          1.2210   -5.2570   -0.9780 n         1 MOL      0.020224
     80 C25         0.1400   -4.6900   -1.8250 c3        1 MOL     -0.592197
     81 C26        -0.2120   -3.2760   -1.4630 c         1 MOL      0.930579
     82 O14         0.5680   -2.5150   -0.9480 o         1 MOL     -0.590545
     83 C27         0.5530   -4.8510   -3.3080 c3        1 MOL      0.380203
     84 C28         1.9880   -4.2560   -3.5930 c3        1 MOL     -0.131153
     85 O15         0.7000   -6.1840   -3.6150 oh        1 MOL     -0.578105
     86 H35         1.9900   -4.6270   -0.7730 hn        1 MOL      0.072181
     87 H36        -0.7840   -5.2490   -1.6350 h1        1 MOL      0.183013
     88 H37        -0.1190   -4.3280   -4.0000 h1        1 MOL     -0.007909
     89 H38         0.3070   -6.6120   -2.8590 ho        1 MOL      0.364018
     90 H39         2.7280   -4.9270   -3.1450 hc        1 MOL      0.040282
     91 H40         2.2840   -4.3500   -4.6420 hc        1 MOL      0.040282
     92 H41         2.1990   -3.3150   -3.1040 hc        1 MOL      0.040282
     93 N9         -1.4730   -2.9260   -1.5760 n         1 MOL     -0.702376
     94 C29        -2.0650   -1.5210   -1.2750 c3        1 MOL      0.022178
     95 C30        -3.3380   -1.4790   -0.3540 c         1 MOL      0.617529
     96 O16        -3.4720   -0.4750    0.3330 o         1 MOL     -0.526994
     97 C31        -2.3740   -0.8440   -2.6490 c3        1 MOL      0.017696
     98 C32        -1.1470   -0.8130   -3.5910 c3        1 MOL      0.060172
     99 C33        -2.9670    0.5790   -2.4170 c3        1 MOL     -0.205379
    100 C34        -1.4470   -0.5120   -5.0320 c3        1 MOL     -0.223506
    101 H42        -2.1230   -3.6670   -1.7680 hn        1 MOL      0.307920
    102 H43        -1.3170   -0.9880   -0.6790 h1        1 MOL      0.094978
    103 H44        -3.1350   -1.3910   -3.2180 hc        1 MOL      0.045946
    104 H45        -0.6040   -1.7580   -3.6530 hc        1 MOL      0.016159
    105 H46        -0.4220   -0.0850   -3.2170 hc        1 MOL      0.016159
    106 H47        -3.8850    0.5170   -1.8230 hc        1 MOL      0.060653
    107 H48        -2.3730    1.2980   -1.8620 hc        1 MOL      0.060653
    108 H49        -3.2000    0.8990   -3.4290 hc        1 MOL      0.060653
    109 H50        -2.0500   -1.2750   -5.5250 hc        1 MOL      0.055760
    110 H51        -1.9730    0.4450   -5.1120 hc        1 MOL      0.055760
    111 H52        -0.4900   -0.5290   -5.5460 hc        1 MOL      0.055760
    112 N10        -4.1640   -2.4760   -0.3180 n         1 MOL     -0.462056
    113 C35        -5.4640   -2.5120    0.2840 c3        1 MOL      0.142013
    114 C36        -6.6640   -2.5570   -0.6450 c         1 MOL      0.494916
    115 O17        -6.5250   -2.9260   -1.8400 o         1 MOL     -0.523303
    116 C37        -5.5700   -3.5810    1.3780 c3        1 MOL      0.301089
    117 C38        -4.5430   -3.6270    2.4330 c3        1 MOL     -0.273502
    118 O18        -6.8440   -3.5280    2.1440 oh        1 MOL     -0.666017
    119 H53        -3.9560   -3.2200   -0.9740 hn        1 MOL      0.259079
    120 H54        -5.5750   -1.5770    0.8290 h1        1 MOL      0.060968
    121 H55        -5.4920   -4.5420    0.8650 h1        1 MOL     -0.002665
    122 H56        -6.6340   -4.0110    2.9420 ho        1 MOL      0.407452
    123 H57        -4.7190   -2.7510    3.0570 hc        1 MOL      0.080073
    124 H58        -4.6210   -4.5320    3.0290 hc        1 MOL      0.080073
    125 H59        -3.5240   -3.5800    2.0550 hc        1 MOL      0.080073
    126 N11        -7.8700   -2.0260   -0.2320 n         1 MOL     -0.518555
    127 C39        -8.9820   -1.7440   -1.1540 c3        1 MOL      0.100358
    128 C40        -9.6000   -0.3550   -1.1200 c         1 MOL      0.689298
    129 O19        -9.8990    0.1540   -2.2220 o         1 MOL     -0.579142
    130 C41       -10.1040   -2.8320   -1.0730 c3        1 MOL      0.251084
    131 C42       -11.0980   -2.7620   -2.2230 c3        1 MOL     -0.361290
    132 O20       -10.7980   -2.7070    0.1330 oh        1 MOL     -0.640879
    133 H60        -7.8550   -1.7100    0.7270 hn        1 MOL      0.308388
    134 H61        -8.5730   -1.7280   -2.1570 h1        1 MOL      0.093379
    135 H62        -9.5980   -3.7910   -1.1050 h1        1 MOL      0.052928
    136 H63       -11.5720   -3.2630    0.0690 ho        1 MOL      0.384396
    137 H64       -11.7260   -3.6470   -2.3250 hc        1 MOL      0.095919
    138 H65       -11.6960   -1.8560   -2.1590 hc        1 MOL      0.095919
    139 H66       -10.5130   -2.7450   -3.1430 hc        1 MOL      0.095919
    140 N12        -9.6490    0.2710    0.0560 n         1 MOL     -0.674581
    141 C43       -10.2750    1.5930    0.1960 c3        1 MOL      0.230963
    142 C44        -9.3570    2.4940    0.9310 c         1 MOL      0.532668
    143 O21        -8.5510    2.0660    1.8120 o         1 MOL     -0.536107
    144 C45       -11.5810    1.3490    0.9060 c3        1 MOL     -0.399308
    145 C46       -12.6270    0.5660    0.1250 c3        1 MOL      0.094377
    146 C47       -13.7960   -0.0230    0.9350 c3        1 MOL     -0.265112
    147 C48       -13.2560   -1.1310    1.8220 c3        1 MOL      0.233325
    148 N13       -14.3650   -1.9170    2.4250 n4        1 MOL     -0.531888
    149 H67        -9.3250   -0.2270    0.8720 hn        1 MOL      0.354258
    150 H68       -10.4550    2.1470   -0.7250 h1        1 MOL      0.072427
    151 H69       -12.0950    2.2720    1.1840 hc        1 MOL      0.127425
    152 H70       -11.3260    0.8680    1.8500 hc        1 MOL      0.127425
    153 H71       -12.1850   -0.2130   -0.5000 hc        1 MOL      0.041440
    154 H72       -13.1450    1.2590   -0.5570 hc        1 MOL      0.041440
    155 H73       -14.5300   -0.4320    0.2450 hc        1 MOL      0.099564
    156 H74       -14.1870    0.8220    1.5010 hc        1 MOL      0.099564
    157 H75       -12.6220   -0.8750    2.6750 hx        1 MOL      0.053605
    158 H76       -12.5950   -1.7550    1.2300 hx        1 MOL      0.053605
    159 H77       -14.8140   -1.3840    3.1600 hn        1 MOL      0.360233
    160 H78       -15.0050   -2.3160    1.7560 hn        1 MOL      0.360233
    161 H79       -14.0690   -2.7780    2.8650 hn        1 MOL      0.360233
    162 N14        -9.3890    3.7630    0.5630 n         1 MOL     -0.555486
    163 C49        -8.3880    4.7840    1.0190 c3        1 MOL      0.311870
    164 C50        -6.9000    4.4860    0.7190 c         1 MOL      0.297027
    165 O22        -6.0390    4.6510    1.5930 o         1 MOL     -0.510044
    166 C51        -8.9590    6.1950    0.6080 c3        1 MOL     -0.088330
    167 C52        -8.2070    7.3430    1.2870 c3        1 MOL     -0.140192
    168 C53        -9.1610    8.5820    1.0860 c         1 MOL      0.719838
    169 O23        -9.2390    9.1590   -0.0150 o         1 MOL     -0.730066
    170 O24        -9.6370    9.0320    2.1360 o         1 MOL     -0.730066
    171 H80       -10.0040    4.0140   -0.2030 hn        1 MOL      0.278724
    172 H81        -8.4960    4.7980    2.0980 h1        1 MOL      0.051543
    173 H82        -9.9820    6.2160    0.9500 hc        1 MOL      0.017772
    174 H83        -8.9480    6.3840   -0.4690 hc        1 MOL      0.017772
    175 H84        -7.2940    7.6090    0.7590 hc        1 MOL      0.027225
    176 H85        -8.0970    7.1140    2.3480 hc        1 MOL      0.027225
    177 N15        -6.4460    4.1340   -0.5040 n         1 MOL     -0.242424
    178 C54        -7.0870    4.2400   -1.8180 c3        1 MOL     -0.189365
    179 H86        -8.0470    3.7230   -1.7960 h1        1 MOL      0.087043
    180 H87        -7.2470    5.2900   -2.0610 h1        1 MOL      0.087043
    181 H88        -6.4470    3.7840   -2.5730 h1        1 MOL      0.087043
    182 H89        -5.5020    3.7960   -0.5860 hn        1 MOL      0.270685
    183 Ca1         6.5000    4.4180   -1.6530 Ca        1 MOL      1.735693
    184 O25         7.6460    2.7040   -3.2360 oh        1 MOL     -0.932050
    185 H90         7.6970    2.3740   -4.1330 ho        1 MOL      0.444150
    186 H91         8.2620    2.1660   -2.7550 ho        1 MOL      0.444150
@<TRIPOS>BOND
     1    1    2 1   
     2    1    4 1   
     3    1    5 1   
     4    1    6 1   
     5    2    3 2   
     6    2    7 1   
     7    7    8 1   
     8    7   15 1   
     9    8    9 1   
    10    8   11 1   
    11    8   16 1   
    12    9   10 2   
    13    9   19 1   
    14   11   12 1   
    15   11   17 1   
    16   11   18 1   
    17   12   13 1   
    18   12   14 1   
    19   19   20 1   
    20   19   28 1   
    21   20   21 1   
    22   20   23 1   
    23   20   29 1   
    24   21   22 2   
    25   21   41 1   
    26   23   24 1   
    27   23   30 1   
    28   23   31 1   
    29   24   25 1   
    30   24   32 1   
    31   24   33 1   
    32   25   26 1   
    33   25   34 1   
    34   25   35 1   
    35   26   27 1   
    36   26   36 1   
    37   26   37 1   
    38   27   38 1   
    39   27   39 1   
    40   27   40 1   
    41   41   42 1   
    42   41   49 1   
    43   42   43 1   
    44   42   45 1   
    45   42   50 1   
    46   43   44 2   
    47   43   53 1   
    48   45   46 1   
    49   45   51 1   
    50   45   52 1   
    51   46   47 1   
    52   46   48 1   
    53   53   54 1   
    54   53   57 1   
    55   54   55 1   
    56   54   58 1   
    57   54   59 1   
    58   55   56 2   
    59   55   60 1   
    60   60   61 1   
    61   60   68 1   
    62   61   62 1   
    63   61   64 1   
    64   61   69 1   
    65   62   63 2   
    66   62   72 1   
    67   64   65 1   
    68   64   70 1   
    69   64   71 1   
    70   65   66 1   
    71   65   67 1   
    72   72   73 1   
    73   72   76 1   
    74   73   74 1   
    75   73   77 1   
    76   73   78 1   
    77   74   75 2   
    78   74   79 1   
    79   79   80 1   
    80   79   86 1   
    81   80   81 1   
    82   80   83 1   
    83   80   87 1   
    84   81   82 2   
    85   81   93 1   
    86   83   84 1   
    87   83   85 1   
    88   83   88 1   
    89   84   90 1   
    90   84   91 1   
    91   84   92 1   
    92   85   89 1   
    93   93   94 1   
    94   93  101 1   
    95   94   95 1   
    96   94   97 1   
    97   94  102 1   
    98   95   96 2   
    99   95  112 1   
   100   97   98 1   
   101   97   99 1   
   102   97  103 1   
   103   98  100 1   
   104   98  104 1   
   105   98  105 1   
   106   99  106 1   
   107   99  107 1   
   108   99  108 1   
   109  100  109 1   
   110  100  110 1   
   111  100  111 1   
   112  112  113 1   
   113  112  119 1   
   114  113  114 1   
   115  113  116 1   
   116  113  120 1   
   117  114  115 2   
   118  114  126 1   
   119  116  117 1   
   120  116  118 1   
   121  116  121 1   
   122  117  123 1   
   123  117  124 1   
   124  117  125 1   
   125  118  122 1   
   126  126  127 1   
   127  126  133 1   
   128  127  128 1   
   129  127  130 1   
   130  127  134 1   
   131  128  129 2   
   132  128  140 1   
   133  130  131 1   
   134  130  132 1   
   135  130  135 1   
   136  131  137 1   
   137  131  138 1   
   138  131  139 1   
   139  132  136 1   
   140  140  141 1   
   141  140  149 1   
   142  141  142 1   
   143  141  144 1   
   144  141  150 1   
   145  142  143 2   
   146  142  162 1   
   147  144  145 1   
   148  144  151 1   
   149  144  152 1   
   150  145  146 1   
   151  145  153 1   
   152  145  154 1   
   153  146  147 1   
   154  146  155 1   
   155  146  156 1   
   156  147  148 1   
   157  147  157 1   
   158  147  158 1   
   159  148  159 1   
   160  148  160 1   
   161  148  161 1   
   162  162  163 1   
   163  162  171 1   
   164  163  164 1   
   165  163  166 1   
   166  163  172 1   
   167  164  165 2   
   168  164  177 1   
   169  166  167 1   
   170  166  173 1   
   171  166  174 1   
   172  167  168 1   
   173  167  175 1   
   174  167  176 1   
   175  168  169 1   
   176  168  170 1   
   177  177  178 1   
   178  177  182 1   
   179  178  179 1   
   180  178  180 1   
   181  178  181 1   
   182  184  185 1   
   183  184  186 1   
@<TRIPOS>SUBSTRUCTURE
     1 MOL         1 TEMP              0 ****  ****    0 ROOT
