@<TRIPOS>MOLECULE
MOL
  192   187     1     0     0
SMALL
resp


@<TRIPOS>ATOM
      1 C1         -3.8040    7.5700    2.7890 c3        1 MOL     -0.312770
      2 C2         -3.4170    6.0720    2.7350 c         1 MOL      0.632711
      3 O1         -3.0170    5.4050    3.6860 o         1 MOL     -0.579969
      4 H1         -2.9320    8.1790    2.5520 hc        1 MOL      0.078230
      5 H2         -4.5930    7.7700    2.0640 hc        1 MOL      0.078230
      6 H3         -4.1580    7.8190    3.7890 hc        1 MOL      0.078230
      7 N1         -3.5070    5.5260    1.5540 n         1 MOL     -0.486735
      8 C3         -3.3420    4.0890    1.2280 c3        1 MOL      0.202401
      9 C4         -1.9110    3.7260    0.8600 c         1 MOL      0.456926
     10 O2         -1.6030    2.5090    0.8010 o         1 MOL     -0.507183
     11 C5         -4.4330    3.6060    0.2670 c3        1 MOL     -0.439726
     12 C6         -4.7120    4.4420   -1.0280 c         1 MOL      0.834631
     13 O3         -5.4750    3.9900   -1.9210 o         1 MOL     -0.765605
     14 O4         -4.0470    5.4860   -1.1770 o         1 MOL     -0.765605
     15 H4         -3.7680    6.1390    0.7970 hn        1 MOL      0.282780
     16 H5         -3.5250    3.5850    2.1730 h1        1 MOL      0.107147
     17 H6         -5.3970    3.5580    0.7750 hc        1 MOL      0.110293
     18 H7         -4.1990    2.5690    0.0020 hc        1 MOL      0.110293
     19 N2         -1.0760    4.7470    0.6240 n         1 MOL     -0.325992
     20 C7          0.2720    4.5820    0.0290 c3        1 MOL      0.114594
     21 C8          1.4230    4.2060    1.0930 c         1 MOL      0.493311
     22 O5          1.4860    4.9280    2.1460 o         1 MOL     -0.532831
     23 C9          0.7340    5.7830   -0.8420 c3        1 MOL     -0.103737
     24 C10        -0.2810    6.2950   -1.9500 c3        1 MOL     -0.148441
     25 C11        -0.7170    5.1440   -2.7810 c3        1 MOL      0.079332
     26 C12        -1.6720    5.5190   -3.8720 c3        1 MOL     -0.024440
     27 N3         -2.8490    6.3520   -3.4910 n4        1 MOL     -0.238551
     28 H8         -1.4120    5.6880    0.7930 hn        1 MOL      0.244608
     29 H9          0.2710    3.7250   -0.6460 h1        1 MOL      0.022674
     30 H10         1.6940    5.6650   -1.3400 hc        1 MOL      0.083113
     31 H11         0.9620    6.5960   -0.1550 hc        1 MOL      0.083113
     32 H12         0.1930    7.0600   -2.5640 hc        1 MOL      0.034188
     33 H13        -1.2280    6.6500   -1.5410 hc        1 MOL      0.034188
     34 H14        -1.1030    4.3520   -2.1400 hc        1 MOL      0.060250
     35 H15         0.2080    4.7820   -3.2390 hc        1 MOL      0.060250
     36 H16        -1.9750    4.6150   -4.3960 hx        1 MOL      0.061578
     37 H17        -1.0960    6.0370   -4.6420 hx        1 MOL      0.061578
     38 H18        -3.3920    6.6580   -4.2780 hn        1 MOL      0.279019
     39 H19        -3.5240    5.7870   -2.9970 hn        1 MOL      0.279019
     40 H20        -2.6000    7.1780   -2.9650 hn        1 MOL      0.279019
     41 N4          2.3740    3.3040    0.8700 n         1 MOL     -0.591586
     42 C13         2.5930    2.1900   -0.1160 c3        1 MOL      0.057335
     43 C14         2.8560    2.7180   -1.5540 c         1 MOL      0.592038
     44 O6          1.9160    2.9070   -2.3570 o         1 MOL     -0.606907
     45 C15         1.4560    1.1720   -0.0180 c3        1 MOL     -0.383407
     46 C16         1.0930    0.7430    1.3550 c         1 MOL      1.038349
     47 O7          1.6820    1.2040    2.3560 o         1 MOL     -0.843620
     48 O8          0.2800   -0.1050    1.5720 o         1 MOL     -0.843620
     49 H21         3.0560    3.2010    1.6040 hn        1 MOL      0.364539
     50 H22         3.4570    1.5770    0.1470 h1        1 MOL      0.106079
     51 H23         1.6900    0.3510   -0.6920 hc        1 MOL      0.097142
     52 H24         0.5590    1.6210   -0.4500 hc        1 MOL      0.097142
     53 N5          4.0820    2.6400   -2.0630 n         1 MOL     -0.398188
     54 C17         5.2940    2.3200   -1.3710 c3        1 MOL      0.157194
     55 C18         6.5050    2.4190   -2.2690 c         1 MOL      0.585762
     56 O9          6.3540    2.5440   -3.4330 o         1 MOL     -0.543648
     57 H25         4.2110    2.6860   -3.0680 hn        1 MOL      0.263575
     58 H26         5.1550    1.3140   -0.9820 h1        1 MOL     -0.010355
     59 H27         5.4900    3.0410   -0.5740 h1        1 MOL     -0.010355
     60 N6          7.7480    2.2060   -1.8380 n         1 MOL     -0.520733
     61 C19         8.0850    1.9270   -0.4020 c3        1 MOL      0.240845
     62 C20         8.5680    0.5290   -0.1990 c         1 MOL      0.446069
     63 O10         8.7790   -0.2630   -1.1530 o         1 MOL     -0.497957
     64 C21         9.0670    2.9730    0.0970 c3        1 MOL     -0.123920
     65 C22         8.8900    4.4130   -0.4580 c         1 MOL      0.747284
     66 O11         9.7910    4.8110   -1.2420 o         1 MOL     -0.676229
     67 O12         7.9590    5.1260   -0.1670 o         1 MOL     -0.676229
     68 H28         8.4200    1.8590   -2.4970 hn        1 MOL      0.327835
     69 H29         7.1790    1.9780    0.1940 h1        1 MOL     -0.056142
     70 H30        10.0970    2.6480   -0.0460 hc        1 MOL     -0.017847
     71 H31         8.9770    3.0180    1.1810 hc        1 MOL     -0.017847
     72 N7          8.7490    0.1960    1.1030 n         1 MOL     -0.326802
     73 C23         9.3490   -1.1330    1.4510 c3        1 MOL     -0.307568
     74 C24         8.5290   -2.3860    1.1350 c         1 MOL      0.598149
     75 O13         9.1820   -3.4280    0.9530 o         1 MOL     -0.538212
     76 H32         8.6410    0.9070    1.8120 hn        1 MOL      0.281796
     77 H33         9.5150   -1.0970    2.5260 h1        1 MOL      0.154858
     78 H34        10.3090   -1.2500    0.9330 h1        1 MOL      0.154858
     79 N8          7.1890   -2.2900    1.1080 n         1 MOL     -0.374256
     80 C25         6.2250   -3.2750    0.6590 c3        1 MOL     -0.058657
     81 C26         4.8860   -2.7510    0.0740 c         1 MOL      0.606639
     82 O14         4.3730   -1.6180    0.3820 o         1 MOL     -0.480151
     83 C27         5.9460   -4.3170    1.8450 c3        1 MOL      0.327976
     84 C28         5.2670   -5.6120    1.2930 c3        1 MOL     -0.489751
     85 O15         5.1800   -3.6780    2.7890 oh        1 MOL     -0.507790
     86 H35         6.7480   -1.4070    1.3310 hn        1 MOL      0.185722
     87 H36         6.7960   -3.8940   -0.0470 h1        1 MOL      0.092782
     88 H37         6.9350   -4.4980    2.2660 h1        1 MOL      0.009421
     89 H38         5.8390   -3.2640    3.3570 ho        1 MOL      0.346191
     90 H39         4.2010   -5.5350    1.0850 hc        1 MOL      0.141564
     91 H40         5.8110   -5.9110    0.3990 hc        1 MOL      0.141564
     92 H41         5.3140   -6.3300    2.1170 hc        1 MOL      0.141564
     93 N9          4.2520   -3.5510   -0.8060 n         1 MOL     -0.624081
     94 C29         2.8930   -3.3220   -1.2720 c3        1 MOL     -0.008851
     95 C30         2.0260   -4.5780   -1.3860 c         1 MOL      0.467287
     96 O16         2.5530   -5.6400   -1.6940 o         1 MOL     -0.508790
     97 C31         2.8940   -2.6140   -2.6590 c3        1 MOL      0.104524
     98 C32         4.0800   -1.6160   -2.8490 c3        1 MOL      0.168971
     99 C33         1.4790   -2.0870   -2.9010 c3        1 MOL     -0.129617
    100 C34         4.1630   -0.9160   -4.2090 c3        1 MOL     -0.196042
    101 H42         4.6550   -4.4490   -1.0480 hn        1 MOL      0.337062
    102 H43         2.4240   -2.6590   -0.5390 h1        1 MOL      0.084046
    103 H44         2.9930   -3.3590   -3.4580 hc        1 MOL      0.023182
    104 H45         5.0350   -2.1380   -2.9000 hc        1 MOL     -0.015998
    105 H46         4.1730   -0.9080   -2.0280 hc        1 MOL     -0.015998
    106 H47         1.1740   -1.4870   -2.0350 hc        1 MOL      0.013177
    107 H48         1.5310   -1.7140   -3.9210 hc        1 MOL      0.013177
    108 H49         0.7120   -2.8560   -2.8760 hc        1 MOL      0.013177
    109 H50         3.3750   -0.1570   -4.2040 hc        1 MOL      0.044591
    110 H51         5.1480   -0.4550   -4.3150 hc        1 MOL      0.044591
    111 H52         4.0030   -1.6210   -5.0180 hc        1 MOL      0.044591
    112 N10         0.7440   -4.5010   -0.9250 n         1 MOL     -0.325064
    113 C35        -0.1200   -5.6320   -0.7080 c3        1 MOL      0.025251
    114 C36        -1.5200   -5.3520   -1.3630 c         1 MOL      0.422345
    115 O17        -2.1200   -6.2300   -1.9550 o         1 MOL     -0.490272
    116 C37        -0.2710   -5.8850    0.8270 c3        1 MOL      0.355806
    117 C38         1.0930   -6.1820    1.4930 c3        1 MOL     -0.418075
    118 O18        -1.0330   -7.0410    1.1600 oh        1 MOL     -0.574017
    119 H53         0.4760   -3.6230   -0.5190 hn        1 MOL      0.309783
    120 H54         0.2930   -6.5440   -1.1410 h1        1 MOL      0.135483
    121 H55        -0.5680   -4.9570    1.3150 h1        1 MOL      0.059971
    122 H56        -1.7250   -6.7770    1.7790 ho        1 MOL      0.386170
    123 H57         1.8960   -5.4590    1.2960 hc        1 MOL      0.108215
    124 H58         0.8440   -5.8990    2.5250 hc        1 MOL      0.108215
    125 H59         1.3950   -7.2290    1.5040 hc        1 MOL      0.108215
    126 N11        -1.9710   -4.1310   -1.2970 n         1 MOL     -0.711456
    127 C39        -3.1810   -3.5750   -1.8270 c3        1 MOL      0.365984
    128 C40        -4.5410   -4.0270   -1.1560 c         1 MOL      0.395152
    129 O19        -4.7200   -5.0990   -0.5660 o         1 MOL     -0.448079
    130 C41        -3.1990   -3.7110   -3.3690 c3        1 MOL      0.366574
    131 C42        -2.0630   -3.0180   -4.0490 c3        1 MOL     -0.236258
    132 O20        -4.3660   -3.0500   -3.8590 oh        1 MOL     -0.760407
    133 H60        -1.3650   -3.4770   -0.8170 hn        1 MOL      0.309520
    134 H61        -3.1750   -2.4960   -1.7010 h1        1 MOL      0.017185
    135 H62        -3.2720   -4.7720   -3.6220 h1        1 MOL      0.038171
    136 H63        -4.3280   -2.9670   -4.8210 ho        1 MOL      0.431612
    137 H64        -2.0040   -1.9740   -3.7550 hc        1 MOL      0.060029
    138 H65        -1.1150   -3.5270   -3.8490 hc        1 MOL      0.060029
    139 H66        -2.1450   -3.0720   -5.1370 hc        1 MOL      0.060029
    140 N12        -5.5270   -3.1670   -1.2030 n         1 MOL     -0.338637
    141 C43        -6.9210   -3.1830   -0.7180 c3        1 MOL      0.031864
    142 C44        -7.1390   -2.4010    0.5160 c         1 MOL      0.583379
    143 O21        -8.0220   -2.6600    1.3400 o         1 MOL     -0.575965
    144 C45        -7.9680   -2.9240   -1.8360 c3        1 MOL     -0.164349
    145 C46        -7.8150   -1.5990   -2.5050 c3        1 MOL      0.237488
    146 C47        -9.2770   -1.2000   -2.8360 c3        1 MOL     -0.006465
    147 C48        -9.4190    0.0030   -3.7830 c3        1 MOL     -0.163521
    148 N13        -8.6000    1.1880   -3.4180 n4        1 MOL     -0.139980
    149 H67        -5.3870   -2.3310   -1.7440 hn        1 MOL      0.177031
    150 H68        -7.1240   -4.1940   -0.3660 h1        1 MOL      0.086513
    151 H69        -8.9480   -3.0420   -1.3890 hc        1 MOL      0.074925
    152 H70        -7.9320   -3.6530   -2.6430 hc        1 MOL      0.074925
    153 H71        -7.2670   -1.6340   -3.4570 hc        1 MOL     -0.057437
    154 H72        -7.4160   -0.8540   -1.8150 hc        1 MOL     -0.057437
    155 H73        -9.8700   -1.0640   -1.9210 hc        1 MOL      0.034472
    156 H74        -9.6450   -2.1010   -3.3270 hc        1 MOL      0.034472
    157 H75       -10.4500    0.3720   -3.7410 hx        1 MOL      0.114375
    158 H76        -9.2330   -0.3840   -4.7840 hx        1 MOL      0.114375
    159 H77        -8.7420    1.4210   -2.4500 hn        1 MOL      0.287949
    160 H78        -7.6380    0.9210   -3.5470 hn        1 MOL      0.287949
    161 H79        -8.7730    1.9350   -4.0670 hn        1 MOL      0.287949
    162 N14        -6.2860   -1.4050    0.7590 n         1 MOL     -0.290587
    163 C49        -6.2080   -0.5810    1.9420 c3        1 MOL     -0.409969
    164 C50        -7.3990    0.3930    2.1150 c         1 MOL      0.533250
    165 O22        -7.8430    1.1150    1.2160 o         1 MOL     -0.543365
    166 C51        -4.8700    0.1750    1.8750 c3        1 MOL     -0.059124
    167 C52        -3.6720   -0.7010    1.8620 c3        1 MOL      0.214499
    168 C53        -3.1960   -1.1580    3.2120 c         1 MOL      0.727791
    169 O23        -2.1480   -0.7380    3.7440 o         1 MOL     -0.778401
    170 O24        -3.7930   -2.0730    3.7700 o         1 MOL     -0.778401
    171 H80        -5.6200   -1.3710    0.0030 hn        1 MOL      0.259578
    172 H81        -6.1820   -1.1680    2.8580 h1        1 MOL      0.252580
    173 H82        -4.8220    0.8410    2.7470 hc        1 MOL      0.045814
    174 H83        -4.8710    0.8060    0.9880 hc        1 MOL      0.045814
    175 H84        -2.9300   -0.0630    1.3770 hc        1 MOL     -0.081883
    176 H85        -3.8290   -1.5050    1.1430 hc        1 MOL     -0.081883
    177 N15        -7.9950    0.3800    3.2690 n         1 MOL     -0.237284
    178 C54        -9.1780    1.2230    3.6100 c3        1 MOL     -0.085064
    179 H86        -9.8800    0.6380    4.2040 h1        1 MOL      0.069946
    180 H87        -8.8530    2.0910    4.1840 h1        1 MOL      0.069946
    181 H88        -9.6650    1.5550    2.6940 h1        1 MOL      0.069946
    182 H89        -7.6300   -0.2510    3.9710 hn        1 MOL      0.233056
    183 Ca1         0.4230   -0.5170    4.1860 Ca        1 MOL      1.640985
    184 O25        -0.6370    2.1140    3.4520 oh        1 MOL     -0.824751
    185 H90        -1.0160    2.0360    2.5760 ho        1 MOL      0.383567
    186 H91         0.3090    2.1570    3.2960 ho        1 MOL      0.383567
    187 O26         0.1090   -3.2100    3.0100 oh        1 MOL     -0.824751
    188 H92         0.1110   -3.7500    3.8080 ho        1 MOL      0.383567
    189 H93        -0.8120   -3.0380    2.8270 ho        1 MOL      0.383567
    190 O27         2.8910   -1.6680    4.0220 oh        1 MOL     -0.824751
    191 H94         3.2620   -1.7460    4.8980 ho        1 MOL      0.383567
    192 H95         3.6510   -1.6850    3.4420 ho        1 MOL      0.383567
@<TRIPOS>BOND
     1    1    2 1   
     2    1    4 1   
     3    1    5 1   
     4    1    6 1   
     5    2    3 2   
     6    2    7 1   
     7    7    8 1   
     8    7   15 1   
     9    8    9 1   
    10    8   11 1   
    11    8   16 1   
    12    9   10 2   
    13    9   19 1   
    14   11   12 1   
    15   11   17 1   
    16   11   18 1   
    17   12   13 1   
    18   12   14 1   
    19   19   20 1   
    20   19   28 1   
    21   20   21 1   
    22   20   23 1   
    23   20   29 1   
    24   21   22 2   
    25   21   41 1   
    26   23   24 1   
    27   23   30 1   
    28   23   31 1   
    29   24   25 1   
    30   24   32 1   
    31   24   33 1   
    32   25   26 1   
    33   25   34 1   
    34   25   35 1   
    35   26   27 1   
    36   26   36 1   
    37   26   37 1   
    38   27   38 1   
    39   27   39 1   
    40   27   40 1   
    41   41   42 1   
    42   41   49 1   
    43   42   43 1   
    44   42   45 1   
    45   42   50 1   
    46   43   44 2   
    47   43   53 1   
    48   45   46 1   
    49   45   51 1   
    50   45   52 1   
    51   46   47 1   
    52   46   48 1   
    53   53   54 1   
    54   53   57 1   
    55   54   55 1   
    56   54   58 1   
    57   54   59 1   
    58   55   56 2   
    59   55   60 1   
    60   60   61 1   
    61   60   68 1   
    62   61   62 1   
    63   61   64 1   
    64   61   69 1   
    65   62   63 2   
    66   62   72 1   
    67   64   65 1   
    68   64   70 1   
    69   64   71 1   
    70   65   66 1   
    71   65   67 1   
    72   72   73 1   
    73   72   76 1   
    74   73   74 1   
    75   73   77 1   
    76   73   78 1   
    77   74   75 2   
    78   74   79 1   
    79   79   80 1   
    80   79   86 1   
    81   80   81 1   
    82   80   83 1   
    83   80   87 1   
    84   81   82 2   
    85   81   93 1   
    86   83   84 1   
    87   83   85 1   
    88   83   88 1   
    89   84   90 1   
    90   84   91 1   
    91   84   92 1   
    92   85   89 1   
    93   93   94 1   
    94   93  101 1   
    95   94   95 1   
    96   94   97 1   
    97   94  102 1   
    98   95   96 2   
    99   95  112 1   
   100   97   98 1   
   101   97   99 1   
   102   97  103 1   
   103   98  100 1   
   104   98  104 1   
   105   98  105 1   
   106   99  106 1   
   107   99  107 1   
   108   99  108 1   
   109  100  109 1   
   110  100  110 1   
   111  100  111 1   
   112  112  113 1   
   113  112  119 1   
   114  113  114 1   
   115  113  116 1   
   116  113  120 1   
   117  114  115 2   
   118  114  126 1   
   119  116  117 1   
   120  116  118 1   
   121  116  121 1   
   122  117  123 1   
   123  117  124 1   
   124  117  125 1   
   125  118  122 1   
   126  126  127 1   
   127  126  133 1   
   128  127  128 1   
   129  127  130 1   
   130  127  134 1   
   131  128  129 2   
   132  128  140 1   
   133  130  131 1   
   134  130  132 1   
   135  130  135 1   
   136  131  137 1   
   137  131  138 1   
   138  131  139 1   
   139  132  136 1   
   140  140  141 1   
   141  140  149 1   
   142  141  142 1   
   143  141  144 1   
   144  141  150 1   
   145  142  143 2   
   146  142  162 1   
   147  144  145 1   
   148  144  151 1   
   149  144  152 1   
   150  145  146 1   
   151  145  153 1   
   152  145  154 1   
   153  146  147 1   
   154  146  155 1   
   155  146  156 1   
   156  147  148 1   
   157  147  157 1   
   158  147  158 1   
   159  148  159 1   
   160  148  160 1   
   161  148  161 1   
   162  162  163 1   
   163  162  171 1   
   164  163  164 1   
   165  163  166 1   
   166  163  172 1   
   167  164  165 2   
   168  164  177 1   
   169  166  167 1   
   170  166  173 1   
   171  166  174 1   
   172  167  168 1   
   173  167  175 1   
   174  167  176 1   
   175  168  169 1   
   176  168  170 1   
   177  177  178 1   
   178  177  182 1   
   179  178  179 1   
   180  178  180 1   
   181  178  181 1   
   182  184  185 1   
   183  184  186 1   
   184  187  188 1   
   185  187  189 1   
   186  190  191 1   
   187  190  192 1   
@<TRIPOS>SUBSTRUCTURE
     1 MOL         1 TEMP              0 ****  ****    0 ROOT
