@<TRIPOS>MOLECULE
MOL
  182   178     1     0     0
SMALL
resp


@<TRIPOS>ATOM
      1 C1          0.7170   -3.9750    6.2370 c3        1 MOL     -0.357334
      2 C2          0.7680   -3.8550    4.6620 c         1 MOL      0.735674
      3 O1         -0.2530   -4.0910    3.9390 o         1 MOL     -0.597231
      4 H1          0.1820   -4.8840    6.5140 hc        1 MOL      0.102259
      5 H2          1.7320   -4.0160    6.6320 hc        1 MOL      0.102259
      6 H3          0.2000   -3.1100    6.6520 hc        1 MOL      0.102259
      7 N1          1.9340   -3.4510    4.1270 n         1 MOL     -0.573918
      8 C3          2.1120   -2.9790    2.8050 c3        1 MOL     -0.017765
      9 C4          2.3610   -4.1620    1.8830 c         1 MOL      0.750618
     10 O2          3.0510   -5.1440    2.2120 o         1 MOL     -0.574624
     11 C5          3.3690   -2.0800    2.8140 c3        1 MOL      0.027139
     12 C6          3.6110   -1.2300    1.5430 c         1 MOL      0.604390
     13 O3          3.9140   -0.0430    1.6670 o         1 MOL     -0.638256
     14 O4          3.3410   -1.7660    0.4310 o         1 MOL     -0.638256
     15 H4          2.6000   -3.1640    4.8260 hn        1 MOL      0.322678
     16 H5          1.1640   -2.4980    2.5260 h1        1 MOL     -0.200051
     17 H6          4.2310   -2.7400    2.8540 hc        1 MOL      0.011392
     18 H7          3.4390   -1.4280    3.6850 hc        1 MOL      0.011392
     19 N2          1.7790   -4.0970    0.6620 n         1 MOL     -0.459857
     20 C7          1.9310   -5.1090   -0.3620 c3        1 MOL      0.173219
     21 C8          3.2040   -5.0280   -1.2500 c         1 MOL      0.504681
     22 O5          3.6540   -5.9950   -1.8350 o         1 MOL     -0.577506
     23 C9          0.6630   -5.1800   -1.1830 c3        1 MOL      0.012403
     24 C10         0.5370   -6.5580   -1.8880 c3        1 MOL     -0.065991
     25 C11        -0.8340   -6.5890   -2.6540 c3        1 MOL     -0.038246
     26 C12        -1.2310   -8.0780   -2.5980 c3        1 MOL      0.041162
     27 N3         -2.5070   -8.1860   -3.2870 n4        1 MOL     -0.259822
     28 H8          1.1830   -3.2840    0.5520 hn        1 MOL      0.253691
     29 H9          2.1050   -6.0750    0.1020 h1        1 MOL      0.039919
     30 H10         0.6170   -4.4760   -2.0080 hc        1 MOL      0.009547
     31 H11        -0.1430   -5.0330   -0.4670 hc        1 MOL      0.009547
     32 H12         0.6670   -7.3890   -1.1930 hc        1 MOL      0.039411
     33 H13         1.3930   -6.6300   -2.5570 hc        1 MOL      0.039411
     34 H14        -0.8190   -6.0560   -3.6060 hc        1 MOL      0.043069
     35 H15        -1.6510   -6.0850   -2.1320 hc        1 MOL      0.043069
     36 H16        -1.2830   -8.4770   -1.5810 hx        1 MOL      0.078842
     37 H17        -0.4560   -8.6660   -3.1020 hx        1 MOL      0.078842
     38 H18        -2.7770   -9.1460   -3.4370 hn        1 MOL      0.267645
     39 H19        -3.2560   -7.7810   -2.7500 hn        1 MOL      0.267645
     40 H20        -2.5040   -7.7950   -4.2210 hn        1 MOL      0.267645
     41 N4          3.8490   -3.8380   -1.2810 n         1 MOL     -0.034440
     42 C13         5.0890   -3.7280   -2.1490 c3        1 MOL      0.089361
     43 C14         6.2130   -3.1470   -1.3720 c         1 MOL      0.387898
     44 O6          7.3300   -3.0510   -1.8280 o         1 MOL     -0.529898
     45 C15         4.8220   -2.8420   -3.3760 c3        1 MOL     -0.273283
     46 C16         4.2220   -1.4720   -2.9330 c         1 MOL      0.838905
     47 O7          3.0250   -1.2480   -2.9620 o         1 MOL     -0.738533
     48 O8          4.9620   -0.7140   -2.2540 o         1 MOL     -0.738533
     49 H21         3.4860   -3.0560   -0.7640 hn        1 MOL     -0.370627
     50 H22         5.4160   -4.7230   -2.4550 h1        1 MOL      0.124952
     51 H23         4.1610   -3.3810   -4.0410 hc        1 MOL      0.072208
     52 H24         5.7630   -2.6520   -3.9030 hc        1 MOL      0.072208
     53 N5          5.9920   -2.8670   -0.1080 n         1 MOL     -0.263908
     54 C17         7.0000   -2.3570    0.8530 c3        1 MOL     -0.079691
     55 C18         7.1720   -0.8250    0.7840 c         1 MOL      0.462525
     56 O9          7.8190   -0.3640    1.7710 o         1 MOL     -0.560377
     57 H25         5.0190   -2.9420    0.1520 hn        1 MOL      0.238684
     58 H26         7.9730   -2.8270    0.7000 h1        1 MOL      0.107717
     59 H27         6.6950   -2.6180    1.8740 h1        1 MOL      0.107717
     60 N6          6.7350   -0.0060   -0.2110 n         1 MOL     -0.246128
     61 C19         7.2060    1.3760   -0.3910 c3        1 MOL      0.187615
     62 C20         5.9850    2.3190   -0.5650 c         1 MOL      0.348824
     63 O10         4.8710    1.8960   -0.6520 o         1 MOL     -0.470257
     64 C21         8.1370    1.4620   -1.6110 c3        1 MOL     -0.216052
     65 C22         7.5520    2.0460   -2.8700 c         1 MOL      0.587209
     66 N7          6.6290    1.3130   -3.4590 n         1 MOL     -0.687677
     67 O11         7.8760    3.1270   -3.3790 o         1 MOL     -0.582108
     68 H28         6.2310   -0.3790   -1.0080 hn        1 MOL      0.230049
     69 H29         7.8140    1.6780    0.4600 h1        1 MOL      0.042469
     70 H30         8.6060    0.4900   -1.7770 hc        1 MOL      0.075163
     71 H31         8.8860    2.1940   -1.3040 hc        1 MOL      0.075163
     72 H32         6.0820    0.6210   -2.9700 hn        1 MOL      0.331190
     73 H33         6.2930    1.6380   -4.3550 hn        1 MOL      0.331190
     74 N8          6.2450    3.6160   -0.6680 n         1 MOL     -0.237849
     75 C23         5.2790    4.6720   -0.8100 c3        1 MOL     -0.292889
     76 C24         4.1950    4.6970    0.2900 c         1 MOL      0.630961
     77 O12         4.5660    4.5860    1.4670 o         1 MOL     -0.486624
     78 H34         7.2000    3.9120   -0.5520 hn        1 MOL      0.278621
     79 H35         4.8230    4.6380   -1.7960 h1        1 MOL      0.133883
     80 H36         5.8990    5.5650   -0.7180 h1        1 MOL      0.133883
     81 N9          2.8640    4.8610   -0.0670 n         1 MOL     -0.646588
     82 C25         1.7520    4.7250    0.8520 c3        1 MOL      0.254357
     83 C26         1.5120    3.2160    1.2460 c         1 MOL      0.387678
     84 O13         2.2240    2.2990    0.7780 o         1 MOL     -0.453892
     85 C27         0.5780    5.3440    0.0410 c3        1 MOL     -0.225845
     86 C28         0.6710    6.7880   -0.3040 ca        1 MOL      0.083575
     87 C29         0.6150    7.7390    0.6920 ca        1 MOL     -0.123787
     88 C30         1.0210    7.1510   -1.6370 ca        1 MOL     -0.123787
     89 C31         0.6660    9.0840    0.3870 ca        1 MOL     -0.277707
     90 C32         1.1070    8.5460   -2.0020 ca        1 MOL     -0.277707
     91 C33         0.8760    9.4820   -0.9460 ca        1 MOL      0.338932
     92 O14         1.0200   10.8450   -1.2020 oh        1 MOL     -0.475042
     93 H37         2.6460    5.1300   -1.0120 hn        1 MOL      0.312127
     94 H38         1.9260    5.3230    1.7540 h1        1 MOL      0.065373
     95 H39        -0.3010    5.2120    0.6730 hc        1 MOL      0.067106
     96 H40         0.4450    4.7840   -0.8850 hc        1 MOL      0.067106
     97 H41         0.4120    7.5560    1.7360 ha        1 MOL      0.119095
     98 H42         1.1470    6.3600   -2.3560 ha        1 MOL      0.119095
     99 H43         0.5710    9.7690    1.2210 ha        1 MOL      0.174774
    100 H44         1.4270    8.8900   -2.9790 ha        1 MOL      0.174774
    101 H45         1.1030   11.2930   -0.3590 ho        1 MOL      0.352581
    102 N10         0.5370    2.9690    2.1440 n         1 MOL     -0.607508
    103 C34         0.2570    1.6240    2.7660 c3        1 MOL      0.071066
    104 C35        -0.0220    0.4840    1.7700 c         1 MOL      0.258468
    105 O15         0.8880   -0.1220    1.1540 o         1 MOL      0.088650
    106 C36         1.3790    1.2670    3.7880 c3        1 MOL      0.445976
    107 C37         0.8880    0.1010    4.6750 c3        1 MOL     -0.118412
    108 C38         1.6910    2.4730    4.7200 c3        1 MOL     -0.386877
    109 C39        -0.2740    0.3530    5.6340 c3        1 MOL     -0.279389
    110 H46         0.0130    3.6910    2.6170 hn        1 MOL      0.334298
    111 H47        -0.7200    1.7680    3.2400 h1        1 MOL      0.059985
    112 H48         2.3020    0.9070    3.3200 hc        1 MOL     -0.058337
    113 H49         1.7830   -0.1980    5.2200 hc        1 MOL      0.056618
    114 H50         0.7310   -0.7840    4.0440 hc        1 MOL      0.056618
    115 H51         2.2980    3.1910    4.1790 hc        1 MOL      0.088261
    116 H52         0.7610    2.9210    5.0680 hc        1 MOL      0.088261
    117 H53         2.2320    2.1250    5.5980 hc        1 MOL      0.088261
    118 H54         0.0120    0.9360    6.4990 hc        1 MOL      0.068209
    119 H55        -1.0770    0.8810    5.1090 hc        1 MOL      0.068209
    120 H56        -0.6530   -0.6370    5.9210 hc        1 MOL      0.068209
    121 N11        -1.2540    0.0200    1.7750 n         1 MOL     -0.490700
    122 C40        -1.6900   -1.1080    0.9280 c3        1 MOL     -0.127060
    123 C41        -2.9680   -0.9470    0.1470 c         1 MOL      0.770765
    124 O16        -3.2100   -1.5470   -0.8710 o         1 MOL     -0.611901
    125 C42        -1.6630   -2.3600    1.8920 c3        1 MOL      0.299185
    126 O17        -2.5970   -2.3520    2.8650 oh        1 MOL     -0.584465
    127 H57        -1.8770    0.3920    2.4730 hn        1 MOL      0.312100
    128 H58        -0.8890   -1.2070    0.1960 h1        1 MOL      0.024967
    129 H59        -0.6360   -2.3810    2.2660 h1        1 MOL      0.014427
    130 H60        -1.6190   -3.2780    1.3080 h1        1 MOL      0.014427
    131 H61        -2.2470   -2.7670    3.6500 ho        1 MOL      0.394014
    132 N12        -3.9240   -0.2020    0.6990 n         1 MOL     -0.613472
    133 C43        -5.3880   -0.1820    0.3320 c3        1 MOL      0.097713
    134 C44        -5.5370    0.3060   -1.1110 c         1 MOL      0.686890
    135 O18        -4.8180    1.1720   -1.5850 o         1 MOL     -0.582084
    136 C45        -6.1350    0.5460    1.4350 c3        1 MOL     -0.127347
    137 H62        -3.5700    0.3920    1.4310 hn        1 MOL      0.274624
    138 H63        -5.7100   -1.2180    0.3730 h1        1 MOL      0.116481
    139 H64        -5.6180    1.4430    1.7840 hc        1 MOL      0.053854
    140 H65        -7.1350    0.8370    1.1120 hc        1 MOL      0.053854
    141 H66        -6.1920   -0.1460    2.2690 hc        1 MOL      0.053854
    142 N13        -6.6620   -0.0330   -1.8050 n         1 MOL     -0.707154
    143 C46        -7.7730   -0.8230   -1.3630 c3        1 MOL      0.445948
    144 C47        -9.0050   -0.2900   -2.1240 c         1 MOL      0.504316
    145 O19        -8.8360   -0.1210   -3.3270 o         1 MOL     -0.545980
    146 C48        -7.5780   -2.2460   -1.6880 c3        1 MOL     -0.265993
    147 H67        -6.7500    0.2890   -2.7550 hn        1 MOL      0.344398
    148 H68        -7.8500   -0.7080   -0.2820 h1        1 MOL     -0.074882
    149 H69        -6.6670   -2.6150   -1.2290 hc        1 MOL      0.055394
    150 H70        -8.4290   -2.7610   -1.2440 hc        1 MOL      0.055394
    151 H71        -7.7080   -2.3660   -2.7640 hc        1 MOL      0.055394
    152 N14       -10.1800   -0.1320   -1.5330 n         1 MOL     -0.565256
    153 C49       -10.5940   -0.4590   -0.0940 c3        1 MOL      0.074294
    154 C50        -9.9700    0.5080    0.9510 c         1 MOL      0.419043
    155 O20        -9.4590    0.0470    1.9920 o         1 MOL     -0.548593
    156 C51       -12.1510   -0.6800   -0.0580 c3        1 MOL     -0.053070
    157 C52       -13.0250    0.5210   -0.0660 c3        1 MOL     -0.068807
    158 C53       -13.0990    1.2390   -1.3750 c         1 MOL      0.625927
    159 O21       -13.8270    0.7460   -2.3050 o         1 MOL     -0.649733
    160 O22       -12.3880    2.2680   -1.5960 o         1 MOL     -0.649733
    161 H72       -10.8970   -0.1670   -2.2460 hn        1 MOL      0.374620
    162 H73       -10.1160   -1.3890    0.2120 h1        1 MOL      0.020062
    163 H74       -12.4090   -1.2740    0.8130 hc        1 MOL      0.040677
    164 H75       -12.3880   -1.3320   -0.9030 hc        1 MOL      0.040677
    165 H76       -12.8250    1.1640    0.7990 hc        1 MOL      0.006601
    166 H77       -14.0570    0.1860    0.0880 hc        1 MOL      0.006601
    167 N15       -10.0590    1.8220    0.7370 n         1 MOL     -0.105233
    168 C54        -9.4730    2.8660    1.5480 c3        1 MOL     -0.214036
    169 H78        -9.2160    3.7160    0.9160 h1        1 MOL      0.092507
    170 H79       -10.1890    3.1830    2.3070 h1        1 MOL      0.092507
    171 H80        -8.5720    2.4900    2.0330 h1        1 MOL      0.092507
    172 H81       -10.5920    2.1080   -0.0730 hn        1 MOL      0.171362
    173 Ca1         2.7710    0.3920   -0.9530 Ca        1 MOL      1.645375
    174 O23         1.0670   -1.9810   -1.3960 oh        1 MOL     -0.868742
    175 H82         0.2530   -1.9570   -1.9080 ho        1 MOL      0.422951
    176 H83         1.7520   -2.1200   -2.0530 ho        1 MOL      0.422951
    177 O24         0.4560    1.2900   -1.8190 oh        1 MOL     -0.868742
    178 H84        -0.4880    1.3480   -1.6630 ho        1 MOL      0.422951
    179 H85         0.5850    1.7810   -2.6350 ho        1 MOL      0.422951
    180 O25         3.0960    1.5250   -3.3130 oh        1 MOL     -0.868742
    181 H86         2.3880    2.0490   -3.6920 ho        1 MOL      0.422951
    182 H87         3.7200    1.4080   -4.0330 ho        1 MOL      0.422951
@<TRIPOS>BOND
     1    1    2 1   
     2    1    4 1   
     3    1    5 1   
     4    1    6 1   
     5    2    3 2   
     6    2    7 1   
     7    7    8 1   
     8    7   15 1   
     9    8    9 1   
    10    8   11 1   
    11    8   16 1   
    12    9   10 2   
    13    9   19 1   
    14   11   12 1   
    15   11   17 1   
    16   11   18 1   
    17   12   13 1   
    18   12   14 1   
    19   19   20 1   
    20   19   28 1   
    21   20   21 1   
    22   20   23 1   
    23   20   29 1   
    24   21   22 2   
    25   21   41 1   
    26   23   24 1   
    27   23   30 1   
    28   23   31 1   
    29   24   25 1   
    30   24   32 1   
    31   24   33 1   
    32   25   26 1   
    33   25   34 1   
    34   25   35 1   
    35   26   27 1   
    36   26   36 1   
    37   26   37 1   
    38   27   38 1   
    39   27   39 1   
    40   27   40 1   
    41   41   42 1   
    42   41   49 1   
    43   42   43 1   
    44   42   45 1   
    45   42   50 1   
    46   43   44 2   
    47   43   53 1   
    48   45   46 1   
    49   45   51 1   
    50   45   52 1   
    51   46   47 1   
    52   46   48 1   
    53   53   54 1   
    54   53   57 1   
    55   54   55 1   
    56   54   58 1   
    57   54   59 1   
    58   55   56 2   
    59   55   60 1   
    60   60   61 1   
    61   60   68 1   
    62   61   62 1   
    63   61   64 1   
    64   61   69 1   
    65   62   63 2   
    66   62   74 1   
    67   64   65 1   
    68   64   70 1   
    69   64   71 1   
    70   65   66 1   
    71   65   67 2   
    72   66   72 1   
    73   66   73 1   
    74   74   75 1   
    75   74   78 1   
    76   75   76 1   
    77   75   79 1   
    78   75   80 1   
    79   76   77 2   
    80   76   81 1   
    81   81   82 1   
    82   81   93 1   
    83   82   83 1   
    84   82   85 1   
    85   82   94 1   
    86   83   84 2   
    87   83  102 1   
    88   85   86 1   
    89   85   95 1   
    90   85   96 1   
    91   86   87 ar  
    92   86   88 ar  
    93   87   89 ar  
    94   87   97 1   
    95   88   90 ar  
    96   88   98 1   
    97   89   91 ar  
    98   89   99 1   
    99   90   91 ar  
   100   90  100 1   
   101   91   92 1   
   102   92  101 1   
   103  102  103 1   
   104  102  110 1   
   105  103  104 1   
   106  103  106 1   
   107  103  111 1   
   108  104  105 2   
   109  104  121 1   
   110  106  107 1   
   111  106  108 1   
   112  106  112 1   
   113  107  109 1   
   114  107  113 1   
   115  107  114 1   
   116  108  115 1   
   117  108  116 1   
   118  108  117 1   
   119  109  118 1   
   120  109  119 1   
   121  109  120 1   
   122  121  122 1   
   123  121  127 1   
   124  122  123 1   
   125  122  125 1   
   126  122  128 1   
   127  123  124 2   
   128  123  132 1   
   129  125  126 1   
   130  125  129 1   
   131  125  130 1   
   132  126  131 1   
   133  132  133 1   
   134  132  137 1   
   135  133  134 1   
   136  133  136 1   
   137  133  138 1   
   138  134  135 2   
   139  134  142 1   
   140  136  139 1   
   141  136  140 1   
   142  136  141 1   
   143  142  143 1   
   144  142  147 1   
   145  143  144 1   
   146  143  146 1   
   147  143  148 1   
   148  144  145 2   
   149  144  152 1   
   150  146  149 1   
   151  146  150 1   
   152  146  151 1   
   153  152  153 1   
   154  152  161 1   
   155  153  154 1   
   156  153  156 1   
   157  153  162 1   
   158  154  155 2   
   159  154  167 1   
   160  156  157 1   
   161  156  163 1   
   162  156  164 1   
   163  157  158 1   
   164  157  165 1   
   165  157  166 1   
   166  158  159 1   
   167  158  160 1   
   168  167  168 1   
   169  167  172 1   
   170  168  169 1   
   171  168  170 1   
   172  168  171 1   
   173  174  175 1   
   174  174  176 1   
   175  177  178 1   
   176  177  179 1   
   177  180  181 1   
   178  180  182 1   
@<TRIPOS>SUBSTRUCTURE
     1 MOL         1 TEMP              0 ****  ****    0 ROOT
