@<TRIPOS>MOLECULE
MOL
  181   177     1     0     0
SMALL
resp


@<TRIPOS>ATOM
      1 C1          0.6910    7.0480   -2.5080 c3        1 MOL     -0.462700
      2 C2          1.9820    6.9360   -1.6750 c         1 MOL      0.649430
      3 O1          2.1800    7.5320   -0.5860 o         1 MOL     -0.569396
      4 H1          0.0730    7.8530   -2.1130 hc        1 MOL      0.118896
      5 H2          0.9440    7.2620   -3.5460 hc        1 MOL      0.118896
      6 H3          0.1410    6.1080   -2.4550 hc        1 MOL      0.118896
      7 N1          2.9150    6.0710   -2.1100 n         1 MOL     -0.492982
      8 C3          4.1780    5.6650   -1.4520 c3        1 MOL      0.044983
      9 C4          4.0590    4.4720   -0.5290 c         1 MOL      0.667199
     10 O2          3.4350    3.4530   -0.7850 o         1 MOL     -0.603772
     11 C5          5.1500    5.3820   -2.5800 c3        1 MOL     -0.194440
     12 C6          6.5650    5.3490   -2.0310 c         1 MOL      0.686389
     13 O3          7.2890    4.3610   -2.1590 o         1 MOL     -0.727834
     14 O4          6.9750    6.2710   -1.2520 o         1 MOL     -0.727834
     15 H4          2.6300    5.6060   -2.9510 hn        1 MOL      0.263474
     16 H5          4.3570    6.4890   -0.7740 h1        1 MOL      0.072220
     17 H6          5.1890    6.0990   -3.3900 hc        1 MOL      0.040221
     18 H7          5.0000    4.4290   -3.0980 hc        1 MOL      0.040221
     19 N2          4.8710    4.4660    0.5460 n         1 MOL     -0.623771
     20 C7          4.9220    3.4220    1.5820 c3        1 MOL      0.593567
     21 C8          3.6390    3.5640    2.4810 c         1 MOL      0.297127
     22 O5          2.9460    4.6240    2.5050 o         1 MOL     -0.516641
     23 C9          6.2280    3.4720    2.3310 c3        1 MOL     -0.388156
     24 H8          5.4800    5.2600    0.7060 hn        1 MOL      0.298199
     25 H9          4.8620    2.5140    0.9670 h1        1 MOL      0.055746
     26 H10         6.3630    2.5970    2.9720 hc        1 MOL      0.086285
     27 H11         7.0430    3.4080    1.5970 hc        1 MOL      0.086285
     28 H12         6.2500    4.4370    2.8230 hc        1 MOL      0.086285
     29 N3          3.2470    2.6510    3.3650 n         1 MOL     -0.258855
     30 C10         3.9610    1.5010    3.8560 c3        1 MOL     -0.032274
     31 C11         4.3180    0.4020    2.8070 c         1 MOL      0.215859
     32 O6          3.5140    0.3130    1.8370 o         1 MOL     -0.404703
     33 C12         3.1360    0.9170    5.0130 c3        1 MOL     -0.330138
     34 C13         1.6130    0.8400    4.5640 c         1 MOL      0.736605
     35 O7          1.3740   -0.2010    3.8980 o         1 MOL     -0.660446
     36 O8          0.7900    1.7170    4.9560 o         1 MOL     -0.660446
     37 H13         2.3520    2.8740    3.7830 hn        1 MOL      0.253603
     38 H14         4.8890    1.8620    4.2840 h1        1 MOL      0.083185
     39 H15         3.2740    1.5300    5.9020 hc        1 MOL      0.069256
     40 H16         3.3850   -0.1290    5.2180 hc        1 MOL      0.069256
     41 N4          5.4460   -0.3160    2.9270 n         1 MOL     -0.314500
     42 C14         5.8140   -1.2670    1.8280 c3        1 MOL      0.033753
     43 C15         6.9480   -0.6850    0.9230 c         1 MOL      0.547824
     44 O9          7.5290    0.3690    1.2930 o         1 MOL     -0.510898
     45 H17         6.0450    0.0130    3.6680 hn        1 MOL      0.283246
     46 H18         5.0350   -1.4880    1.0920 h1        1 MOL      0.052129
     47 H19         6.1370   -2.2070    2.2630 h1        1 MOL      0.052129
     48 N5          7.3050   -1.3810   -0.1820 n         1 MOL     -0.617735
     49 C16         6.7500   -2.6500   -0.6700 c3        1 MOL      0.325014
     50 C17         5.5970   -2.3420   -1.6670 c         1 MOL      0.525122
     51 O10         5.1200   -1.2300   -1.8610 o         1 MOL     -0.421724
     52 C18         7.8640   -3.6020   -1.0740 c3        1 MOL     -0.204278
     53 C19         8.5490   -3.2100   -2.4180 c         1 MOL      0.646899
     54 N6          8.3930   -4.0420   -3.3940 n         1 MOL     -0.784388
     55 O11         9.1190   -2.1720   -2.4750 o         1 MOL     -0.505384
     56 H20         8.1990   -1.0860   -0.5500 hn        1 MOL      0.346977
     57 H21         6.2010   -3.1590    0.1190 h1        1 MOL     -0.015956
     58 H22         7.4700   -4.6160   -1.1260 hc        1 MOL      0.029185
     59 H23         8.5620   -3.6230   -0.2390 hc        1 MOL      0.029185
     60 H24         8.0050   -4.9510   -3.2330 hn        1 MOL      0.371004
     61 H25         8.7340   -3.7180   -4.2930 hn        1 MOL      0.371004
     62 N7          5.1370   -3.4870   -2.2410 n         1 MOL     -0.481175
     63 C20         4.0410   -3.4950   -3.2280 c3        1 MOL     -0.230872
     64 C21         2.7410   -4.1380   -2.7450 c         1 MOL      0.694517
     65 O12         1.7210   -4.1060   -3.4310 o         1 MOL     -0.601214
     66 H26         5.4930   -4.3960   -1.9940 hn        1 MOL      0.298478
     67 H27         4.1640   -4.1140   -4.1100 h1        1 MOL      0.134777
     68 H28         3.6830   -2.4940   -3.5030 h1        1 MOL      0.134777
     69 N8          2.7360   -4.7180   -1.5360 n         1 MOL     -0.510303
     70 C22         1.5320   -5.3100   -0.9400 c3        1 MOL      0.028371
     71 C23         0.5100   -4.2030   -0.7320 c         1 MOL      0.660014
     72 O13         0.8210   -3.1070   -0.2350 o         1 MOL     -0.694446
     73 C24         1.7540   -6.0410    0.3930 c3        1 MOL      0.377074
     74 C25         0.5140   -6.5660    1.1580 c3        1 MOL     -0.326903
     75 O14         2.6350   -7.0910    0.1850 oh        1 MOL     -0.654248
     76 H29         3.6210   -5.0210   -1.1430 hn        1 MOL      0.237955
     77 H30         1.1460   -5.9890   -1.7080 h1        1 MOL      0.067784
     78 H31         2.2920   -5.3670    1.0530 h1        1 MOL     -0.024441
     79 H32         3.1860   -7.1740    0.9630 ho        1 MOL      0.401986
     80 H33         0.9230   -7.0690    2.0310 hc        1 MOL      0.093357
     81 H34        -0.2070   -5.7520    1.1840 hc        1 MOL      0.093357
     82 H35         0.0280   -7.3170    0.5390 hc        1 MOL      0.093357
     83 N9         -0.7220   -4.4300   -1.2160 n         1 MOL     -0.120410
     84 C26        -1.8540   -3.5520   -1.2370 c3        1 MOL     -0.076539
     85 C27        -2.6090   -3.8310    0.0360 c         1 MOL      0.487468
     86 O15        -2.7930   -5.0000    0.4530 o         1 MOL     -0.572117
     87 C28        -2.5600   -3.6730   -2.5840 c3        1 MOL      0.151487
     88 C29        -3.7750   -2.7910   -2.6410 c3        1 MOL      0.171983
     89 C30        -1.6480   -3.3200   -3.7950 c3        1 MOL     -0.437605
     90 C31        -4.6380   -2.7030   -3.8850 c3        1 MOL     -0.345706
     91 H36        -0.8660   -5.3650   -1.5850 hn        1 MOL      0.127597
     92 H37        -1.5950   -2.4970   -1.1480 h1        1 MOL      0.054223
     93 H38        -3.0040   -4.6640   -2.7020 hc        1 MOL     -0.011583
     94 H39        -3.4050   -1.7700   -2.5120 hc        1 MOL     -0.019042
     95 H40        -4.3840   -3.0810   -1.7830 hc        1 MOL     -0.019042
     96 H41        -0.7970   -4.0030   -3.8180 hc        1 MOL      0.116477
     97 H42        -2.1550   -3.3070   -4.7630 hc        1 MOL      0.116477
     98 H43        -1.1880   -2.3390   -3.6650 hc        1 MOL      0.116477
     99 H44        -4.1470   -2.2280   -4.7390 hc        1 MOL      0.069204
    100 H45        -4.7430   -3.6960   -4.3280 hc        1 MOL      0.069204
    101 H46        -5.5290   -2.1430   -3.5890 hc        1 MOL      0.069204
    102 N10        -3.0470   -2.7300    0.7530 n         1 MOL      0.130199
    103 C32        -3.8340   -2.7660    2.0480 c3        1 MOL     -0.270806
    104 C33        -5.1640   -2.0530    1.9930 c         1 MOL      0.553963
    105 O16        -6.0670   -2.3360    2.8100 o         1 MOL     -0.560636
    106 C34        -2.9110   -2.2340    3.2260 c3        1 MOL      0.216255
    107 C35        -1.5230   -2.9460    3.2320 c         1 MOL      0.639484
    108 O17        -1.3510   -3.8450    4.1100 o         1 MOL     -0.692998
    109 O18        -0.5850   -2.4330    2.5500 o         1 MOL     -0.692998
    110 H47        -2.5680   -1.8470    0.6940 hn        1 MOL     -0.477909
    111 H48        -4.0480   -3.8400    2.0700 h1        1 MOL      0.130648
    112 H49        -3.3650   -2.4170    4.1960 hc        1 MOL     -0.036077
    113 H50        -2.8830   -1.1710    2.9910 hc        1 MOL     -0.036077
    114 N11        -5.3520   -1.0490    1.1010 n         1 MOL     -0.432361
    115 C36        -6.5350   -0.2090    1.0310 c3        1 MOL      0.455951
    116 C37        -6.2160    1.1870    0.4400 c         1 MOL      0.241122
    117 O19        -6.6960    1.5520   -0.6540 o         1 MOL     -0.505434
    118 C38        -7.5640   -0.9890    0.1860 c3        1 MOL     -0.472160
    119 C39        -9.0110   -0.5540    0.1340 ca        1 MOL      0.290162
    120 C40        -9.6970   -0.8310   -1.1000 ca        1 MOL     -0.241585
    121 C41        -9.6980    0.0720    1.1560 ca        1 MOL     -0.241585
    122 C42       -10.9990   -0.4310   -1.2530 ca        1 MOL     -0.053049
    123 C43       -10.9750    0.5730    0.9620 ca        1 MOL     -0.053049
    124 C44       -11.6830    0.2510   -0.2200 ca        1 MOL     -0.213031
    125 H51        -4.5230   -0.7880    0.5660 hn        1 MOL      0.161385
    126 H52        -6.7840   -0.1140    2.0840 h1        1 MOL     -0.025977
    127 H53        -7.5600   -2.0400    0.4570 hc        1 MOL      0.139166
    128 H54        -7.2160   -0.8970   -0.8480 hc        1 MOL      0.139166
    129 H55        -9.1530   -1.2520   -1.9400 ha        1 MOL      0.126952
    130 H56        -9.2280    0.2580    2.1120 ha        1 MOL      0.126952
    131 H57       -11.4080   -0.5610   -2.2460 ha        1 MOL      0.091500
    132 H58       -11.4340    1.0720    1.7940 ha        1 MOL      0.091500
    133 H59       -12.6900    0.5900   -0.4200 ha        1 MOL      0.110719
    134 N12        -5.3790    1.9460    1.1520 n         1 MOL     -0.005983
    135 C45        -5.3090    3.3700    0.9140 c3        1 MOL     -0.061253
    136 C46        -4.6610    3.6860   -0.4740 c         1 MOL      0.214669
    137 O20        -4.7340    4.8560   -0.8810 o         1 MOL     -0.478146
    138 C47        -4.4900    4.0340    2.0350 c3        1 MOL     -0.036067
    139 C48        -4.5590    2.9530    3.1660 c3        1 MOL     -0.027495
    140 C49        -4.7840    1.6110    2.4520 c3        1 MOL     -0.184204
    141 H60        -6.3780    3.5950    0.9890 h1        1 MOL      0.103369
    142 H61        -3.4660    4.2530    1.7280 hc        1 MOL      0.061879
    143 H62        -4.9100    5.0090    2.2980 hc        1 MOL      0.061879
    144 H63        -3.7070    3.0760    3.8400 hc        1 MOL      0.031012
    145 H64        -5.4590    3.2070    3.7110 hc        1 MOL      0.031012
    146 H65        -3.7910    1.2000    2.2510 h1        1 MOL      0.111875
    147 H66        -5.4120    0.9450    3.0430 h1        1 MOL      0.111875
    148 N13        -4.0900    2.6640   -1.1500 n         1 MOL     -0.018337
    149 C50        -3.4840    2.7320   -2.5260 c3        1 MOL     -0.132129
    150 C51        -4.6050    2.9450   -3.5230 c         1 MOL      0.448952
    151 O21        -4.6120    3.7060   -4.5010 o         1 MOL     -0.544119
    152 C52        -2.7410    1.4390   -2.7850 c3        1 MOL      0.142280
    153 C53        -1.6090    1.1000   -1.7710 c3        1 MOL     -0.197902
    154 C54        -2.0890    0.2170   -0.6070 c         1 MOL      0.417294
    155 O22        -1.1830   -0.5030   -0.0690 o         1 MOL     -0.388901
    156 O23        -3.2150    0.2020   -0.0810 o         1 MOL     -0.388901
    157 H67        -3.9620    1.7820   -0.6810 hn        1 MOL      0.148166
    158 H68        -2.8520    3.6190   -2.5990 h1        1 MOL      0.088531
    159 H69        -2.2430    1.5480   -3.7560 hc        1 MOL     -0.030296
    160 H70        -3.5440    0.7120   -2.8160 hc        1 MOL     -0.030296
    161 H71        -1.2840    2.0420   -1.3390 hc        1 MOL      0.091578
    162 H72        -0.8050    0.7070   -2.3930 hc        1 MOL      0.091578
    163 N14        -5.6670    2.1660   -3.2960 n         1 MOL     -0.144394
    164 C55        -6.9230    2.1510   -4.1200 c3        1 MOL     -0.430992
    165 H73        -7.4750    3.0760   -3.9560 h1        1 MOL      0.143977
    166 H74        -6.6650    2.0650   -5.1750 h1        1 MOL      0.143977
    167 H75        -7.5400    1.3020   -3.8260 h1        1 MOL      0.143977
    168 H76        -5.7610    1.5910   -2.4610 hn        1 MOL      0.262772
    169 Ca1         0.9610   -0.7880    1.3530 Ca        1 MOL      1.603068
    170 O24         2.9450   -2.7200    1.9320 oh        1 MOL     -0.799636
    171 H77         3.4660   -2.4650    2.6920 ho        1 MOL      0.391073
    172 H78         2.5010   -3.5200    2.2030 ho        1 MOL      0.391073
    173 O25         1.3750    1.8580    0.4510 oh        1 MOL     -0.799636
    174 H79         1.0540    2.5790    1.0020 ho        1 MOL      0.391073
    175 H80         2.1270    2.2290   -0.0040 ho        1 MOL      0.391073
    176 O26        -1.1260    0.5300    2.3670 oh        1 MOL     -0.799636
    177 H81        -1.7870    0.4740    1.6820 ho        1 MOL      0.391073
    178 H82        -1.5940    0.3240    3.1760 ho        1 MOL      0.391073
    179 O27         2.4390   -0.6560   -0.8560 oh        1 MOL     -0.799636
    180 H83         1.9000   -0.8280   -1.6290 ho        1 MOL      0.391073
    181 H84         3.3180   -0.9340   -1.1160 ho        1 MOL      0.391073
@<TRIPOS>BOND
     1    1    2 1   
     2    1    4 1   
     3    1    5 1   
     4    1    6 1   
     5    2    3 2   
     6    2    7 1   
     7    7    8 1   
     8    7   15 1   
     9    8    9 1   
    10    8   11 1   
    11    8   16 1   
    12    9   10 2   
    13    9   19 1   
    14   11   12 1   
    15   11   17 1   
    16   11   18 1   
    17   12   13 1   
    18   12   14 1   
    19   19   20 1   
    20   19   24 1   
    21   20   21 1   
    22   20   23 1   
    23   20   25 1   
    24   21   22 2   
    25   21   29 1   
    26   23   26 1   
    27   23   27 1   
    28   23   28 1   
    29   29   30 1   
    30   29   37 1   
    31   30   31 1   
    32   30   33 1   
    33   30   38 1   
    34   31   32 2   
    35   31   41 1   
    36   33   34 1   
    37   33   39 1   
    38   33   40 1   
    39   34   35 1   
    40   34   36 1   
    41   41   42 1   
    42   41   45 1   
    43   42   43 1   
    44   42   46 1   
    45   42   47 1   
    46   43   44 2   
    47   43   48 1   
    48   48   49 1   
    49   48   56 1   
    50   49   50 1   
    51   49   52 1   
    52   49   57 1   
    53   50   51 2   
    54   50   62 1   
    55   52   53 1   
    56   52   58 1   
    57   52   59 1   
    58   53   54 1   
    59   53   55 2   
    60   54   60 1   
    61   54   61 1   
    62   62   63 1   
    63   62   66 1   
    64   63   64 1   
    65   63   67 1   
    66   63   68 1   
    67   64   65 2   
    68   64   69 1   
    69   69   70 1   
    70   69   76 1   
    71   70   71 1   
    72   70   73 1   
    73   70   77 1   
    74   71   72 2   
    75   71   83 1   
    76   73   74 1   
    77   73   75 1   
    78   73   78 1   
    79   74   80 1   
    80   74   81 1   
    81   74   82 1   
    82   75   79 1   
    83   83   84 1   
    84   83   91 1   
    85   84   85 1   
    86   84   87 1   
    87   84   92 1   
    88   85   86 2   
    89   85  102 1   
    90   87   88 1   
    91   87   89 1   
    92   87   93 1   
    93   88   90 1   
    94   88   94 1   
    95   88   95 1   
    96   89   96 1   
    97   89   97 1   
    98   89   98 1   
    99   90   99 1   
   100   90  100 1   
   101   90  101 1   
   102  102  103 1   
   103  102  110 1   
   104  103  104 1   
   105  103  106 1   
   106  103  111 1   
   107  104  105 2   
   108  104  114 1   
   109  106  107 1   
   110  106  112 1   
   111  106  113 1   
   112  107  108 1   
   113  107  109 1   
   114  114  115 1   
   115  114  125 1   
   116  115  116 1   
   117  115  118 1   
   118  115  126 1   
   119  116  117 2   
   120  116  134 1   
   121  118  119 1   
   122  118  127 1   
   123  118  128 1   
   124  119  120 ar  
   125  119  121 ar  
   126  120  122 ar  
   127  120  129 1   
   128  121  123 ar  
   129  121  130 1   
   130  122  124 ar  
   131  122  131 1   
   132  123  124 ar  
   133  123  132 1   
   134  124  133 1   
   135  134  135 1   
   136  134  140 1   
   137  135  136 1   
   138  135  138 1   
   139  135  141 1   
   140  136  137 2   
   141  136  148 1   
   142  138  139 1   
   143  138  142 1   
   144  138  143 1   
   145  139  140 1   
   146  139  144 1   
   147  139  145 1   
   148  140  146 1   
   149  140  147 1   
   150  148  149 1   
   151  148  157 1   
   152  149  150 1   
   153  149  152 1   
   154  149  158 1   
   155  150  151 2   
   156  150  163 1   
   157  152  153 1   
   158  152  159 1   
   159  152  160 1   
   160  153  154 1   
   161  153  161 1   
   162  153  162 1   
   163  154  155 1   
   164  154  156 1   
   165  163  164 1   
   166  163  168 1   
   167  164  165 1   
   168  164  166 1   
   169  164  167 1   
   170  170  171 1   
   171  170  172 1   
   172  173  174 1   
   173  173  175 1   
   174  176  177 1   
   175  176  178 1   
   176  179  180 1   
   177  179  181 1   
@<TRIPOS>SUBSTRUCTURE
     1 MOL         1 TEMP              0 ****  ****    0 ROOT
