@<TRIPOS>MOLECULE
MOL
  182   178     1     0     0
SMALL
resp


@<TRIPOS>ATOM
      1 C1         -3.2760   -3.1810    6.1560 c3        1 MOL     -0.411057
      2 C2         -2.9270   -3.0800    4.6820 c         1 MOL      0.742716
      3 O1         -3.7570   -2.8040    3.8270 o         1 MOL     -0.595399
      4 H1         -3.7970   -4.1200    6.3420 hc        1 MOL      0.109845
      5 H2         -2.3620   -3.1500    6.7500 hc        1 MOL      0.109845
      6 H3         -3.9200   -2.3470    6.4350 hc        1 MOL      0.109845
      7 N1         -1.6380   -3.2600    4.3880 n         1 MOL     -0.661729
      8 C3         -1.0780   -2.8930    3.0280 c3        1 MOL      0.226587
      9 C4         -1.5860   -3.8350    1.9290 c         1 MOL      0.510546
     10 O2         -1.3380   -5.0670    2.0280 o         1 MOL     -0.506537
     11 C5          0.4130   -2.5560    2.9970 c3        1 MOL     -0.250468
     12 C6          1.0280   -1.9200    1.7460 c         1 MOL      0.656527
     13 O3          2.2240   -1.6310    1.6110 o         1 MOL     -0.722245
     14 O4          0.2060   -1.5200    0.8820 o         1 MOL     -0.722245
     15 H4         -1.0610   -3.6320    5.1290 hn        1 MOL      0.335106
     16 H5         -1.5360   -1.9260    2.8150 h1        1 MOL      0.036481
     17 H6          0.9340   -3.5150    3.0330 hc        1 MOL      0.085406
     18 H7          0.6980   -1.9300    3.8430 hc        1 MOL      0.085406
     19 N2         -2.2150   -3.3200    0.8480 n         1 MOL     -0.314412
     20 C7         -2.8340   -4.2410   -0.1370 c3        1 MOL      0.001742
     21 C8         -1.8080   -5.1640   -0.7480 c         1 MOL      0.454963
     22 O5         -2.2320   -6.2470   -1.1350 o         1 MOL     -0.558131
     23 C9         -3.6450   -3.3380   -1.1190 c3        1 MOL     -0.015799
     24 C10        -4.4550   -4.2520   -2.0740 c3        1 MOL     -0.162063
     25 C11        -5.3970   -3.5010   -3.0130 c3        1 MOL      0.295841
     26 C12        -6.2310   -4.4410   -3.8300 c3        1 MOL     -0.048108
     27 N3         -7.7130   -4.0660   -3.6820 n4        1 MOL     -0.375182
     28 H8         -2.5380   -2.3620    0.7910 hn        1 MOL      0.236823
     29 H9         -3.4770   -4.9510    0.3850 h1        1 MOL      0.099430
     30 H10        -2.9410   -2.7140   -1.6590 hc        1 MOL      0.020611
     31 H11        -4.2720   -2.7650   -0.4460 hc        1 MOL      0.020611
     32 H12        -5.0840   -4.8920   -1.4580 hc        1 MOL      0.059263
     33 H13        -3.7700   -4.8830   -2.6400 hc        1 MOL      0.059263
     34 H14        -4.8230   -2.8910   -3.7080 hc        1 MOL     -0.057930
     35 H15        -5.9940   -2.8230   -2.4040 hc        1 MOL     -0.057930
     36 H16        -6.1450   -5.4390   -3.4220 hx        1 MOL      0.088665
     37 H17        -5.8670   -4.3720   -4.8470 hx        1 MOL      0.088665
     38 H18        -7.8750   -4.2000   -2.6950 hn        1 MOL      0.306623
     39 H19        -7.9550   -3.1560   -4.0320 hn        1 MOL      0.306623
     40 H20        -8.2130   -4.7380   -4.2490 hn        1 MOL      0.306623
     41 N4         -0.5600   -4.6820   -0.8620 n         1 MOL     -0.186592
     42 C13         0.5440   -5.3100   -1.5610 c3        1 MOL      0.190223
     43 C14         1.6950   -5.7410   -0.6550 c         1 MOL      0.301295
     44 O6          2.6850   -6.2150   -1.2700 o         1 MOL     -0.524238
     45 C15         0.9410   -4.5290   -2.7830 c3        1 MOL     -0.489381
     46 C16         1.8000   -3.2870   -2.5650 c         1 MOL      0.847171
     47 O7          1.9010   -2.7360   -1.4760 o         1 MOL     -0.757490
     48 O8          2.5070   -2.7950   -3.4660 o         1 MOL     -0.757490
     49 H21        -0.4880   -3.7710   -0.4410 hn        1 MOL      0.098057
     50 H22         0.0250   -6.2140   -1.8850 h1        1 MOL      0.068516
     51 H23         0.0520   -4.1090   -3.2650 hc        1 MOL      0.130655
     52 H24         1.4000   -5.2220   -3.4880 hc        1 MOL      0.130655
     53 N5          1.6750   -5.4610    0.6500 n         1 MOL     -0.068213
     54 C17         2.7490   -5.5880    1.6110 c3        1 MOL     -0.251910
     55 C18         4.0060   -4.8500    1.2960 c         1 MOL      0.570934
     56 O9          4.9620   -4.9560    2.0400 o         1 MOL     -0.581426
     57 H25         0.7800   -5.0600    0.9060 hn        1 MOL      0.089743
     58 H26         3.0130   -6.6460    1.5690 h1        1 MOL      0.125047
     59 H27         2.4200   -5.3010    2.6130 h1        1 MOL      0.125047
     60 N6          4.1430   -4.0980    0.2130 n         1 MOL     -0.322871
     61 C19         5.4930   -3.5220   -0.1750 c3        1 MOL      0.099642
     62 C20         5.4670   -1.9590   -0.2520 c         1 MOL      0.606119
     63 O10         4.4010   -1.3200   -0.2910 o         1 MOL     -0.537947
     64 C21         5.7980   -4.1430   -1.4990 c3        1 MOL     -0.126576
     65 C22         7.1390   -3.7170   -1.9820 c         1 MOL      0.544353
     66 N7          7.1800   -2.8950   -2.9870 n         1 MOL     -0.744862
     67 O11         8.1860   -4.0260   -1.3830 o         1 MOL     -0.566462
     68 H28         3.2700   -3.8410   -0.2310 hn        1 MOL      0.336527
     69 H29         6.2950   -3.7970    0.5080 h1        1 MOL      0.059270
     70 H30         5.0110   -4.0060   -2.2420 hc        1 MOL      0.075924
     71 H31         5.9260   -5.2120   -1.3580 hc        1 MOL      0.075924
     72 H32         6.2850   -2.6910   -3.4190 hn        1 MOL      0.364211
     73 H33         8.0870   -2.9100   -3.4230 hn        1 MOL      0.364211
     74 N8          6.6550   -1.3250   -0.3730 n         1 MOL     -0.568447
     75 C23         6.8580    0.0360   -0.8550 c3        1 MOL      0.047304
     76 C24         6.2680    1.0940    0.0580 c         1 MOL      0.566502
     77 O12         6.3510    0.8790    1.3160 o         1 MOL     -0.499787
     78 H34         7.5190   -1.8390   -0.2440 hn        1 MOL      0.347247
     79 H35         6.5210    0.0750   -1.8890 h1        1 MOL      0.064885
     80 H36         7.8980    0.3150   -1.0360 h1        1 MOL      0.064885
     81 N9          5.6550    2.1650   -0.4410 n         1 MOL     -0.758701
     82 C25         5.0020    3.1580    0.4930 c3        1 MOL      0.473864
     83 C26         3.8010    2.4830    1.1390 c         1 MOL      0.275880
     84 O13         3.2960    1.4100    0.7260 o         1 MOL     -0.394710
     85 C27         4.5730    4.3930   -0.2980 c3        1 MOL     -0.100988
     86 C28         5.5990    5.2110   -0.9860 ca        1 MOL      0.105515
     87 C29         6.5230    5.8780   -0.1340 ca        1 MOL     -0.195416
     88 C30         5.7900    5.3840   -2.3870 ca        1 MOL     -0.195416
     89 C31         7.5370    6.6630   -0.6180 ca        1 MOL     -0.220277
     90 C32         6.9550    6.0830   -2.8670 ca        1 MOL     -0.220277
     91 C33         7.8340    6.7490   -1.9900 ca        1 MOL      0.295239
     92 O14         8.8570    7.5490   -2.4100 oh        1 MOL     -0.438514
     93 H37         5.5350    2.2750   -1.4370 hn        1 MOL      0.329517
     94 H38         5.6860    3.4000    1.3030 h1        1 MOL      0.009994
     95 H39         4.0610    5.0100    0.4480 hc        1 MOL      0.007800
     96 H40         3.8190    4.1480   -1.0410 hc        1 MOL      0.007800
     97 H41         6.5970    5.7390    0.9380 ha        1 MOL      0.136162
     98 H42         5.1960    4.8120   -3.0810 ha        1 MOL      0.136162
     99 H43         8.1840    7.0720    0.1460 ha        1 MOL      0.146816
    100 H44         7.1320    6.2380   -3.9210 ha        1 MOL      0.146816
    101 H45         9.0100    7.3760   -3.3440 ho        1 MOL      0.349437
    102 N10         3.2930    3.1450    2.2370 n         1 MOL     -0.386640
    103 C34         2.0170    2.8830    2.9840 c3        1 MOL      0.104553
    104 C35         0.8150    2.4580    2.1610 c         1 MOL      0.147383
    105 O15         0.7410    1.2800    1.7610 o         1 MOL     -0.357696
    106 C36         2.2530    2.1160    4.2860 c3        1 MOL     -0.032550
    107 C37         0.9340    1.4450    4.8050 c3        1 MOL      0.153401
    108 C38         3.0130    3.0420    5.2910 c3        1 MOL     -0.239922
    109 C39         1.2840    0.8870    6.1820 c3        1 MOL     -0.202093
    110 H46         3.7010    4.0650    2.3720 hn        1 MOL      0.260176
    111 H47         1.7860    3.9030    3.2910 h1        1 MOL      0.067333
    112 H48         2.9190    1.2870    4.0610 hc        1 MOL      0.151285
    113 H49         0.8020    0.5430    4.2130 hc        1 MOL     -0.015759
    114 H50         0.1440    2.1890    4.9300 hc        1 MOL     -0.015759
    115 H51         3.3670    2.3920    6.0980 hc        1 MOL      0.064479
    116 H52         3.8450    3.4880    4.7420 hc        1 MOL      0.064479
    117 H53         2.3660    3.8420    5.6420 hc        1 MOL      0.064479
    118 H54         1.3840    1.7280    6.8730 hc        1 MOL      0.051625
    119 H55         0.4750    0.2230    6.4970 hc        1 MOL      0.051625
    120 H56         2.2240    0.3390    6.1030 hc        1 MOL      0.051625
    121 N11        -0.3010    3.2510    1.9770 n         1 MOL     -0.300398
    122 C40        -1.6740    2.6650    1.8010 c3        1 MOL     -0.121801
    123 C41        -2.5060    2.9660    0.5550 c         1 MOL      0.713071
    124 O16        -3.6670    2.4990    0.5410 o         1 MOL     -0.595724
    125 C42        -2.4860    2.8490    3.1750 c3        1 MOL      0.346838
    126 O17        -2.4930    4.1990    3.6220 oh        1 MOL     -0.615614
    127 H57        -0.2520    4.2080    2.2830 hn        1 MOL      0.230146
    128 H58        -1.5720    1.5860    1.6950 h1        1 MOL      0.077826
    129 H59        -2.0070    2.1980    3.8960 h1        1 MOL      0.021800
    130 H60        -3.5180    2.5060    3.0880 h1        1 MOL      0.021800
    131 H61        -1.7460    4.3340    4.2010 ho        1 MOL      0.374469
    132 N12        -2.0630    3.6920   -0.4720 n         1 MOL     -0.596157
    133 C43        -2.6840    4.1440   -1.7400 c3        1 MOL      0.396939
    134 C44        -2.4360    3.1320   -2.8460 c         1 MOL      0.477850
    135 O18        -1.4320    3.0770   -3.5630 o         1 MOL     -0.553815
    136 C45        -1.9430    5.4990   -2.0960 c3        1 MOL     -0.328454
    137 H62        -1.1410    4.0250   -0.2430 hn        1 MOL      0.261175
    138 H63        -3.7540    4.2250   -1.5580 h1        1 MOL     -0.047723
    139 H64        -0.8550    5.3790   -2.1330 hc        1 MOL      0.097927
    140 H65        -2.3510    5.8460   -3.0510 hc        1 MOL      0.097927
    141 H66        -2.1720    6.2260   -1.3180 hc        1 MOL      0.097927
    142 N13        -3.3110    2.1530   -3.1690 n         1 MOL     -0.593638
    143 C46        -4.6430    1.9870   -2.5250 c3        1 MOL      0.364943
    144 C47        -5.5950    3.2020   -2.6370 c         1 MOL      0.413452
    145 O19        -5.5980    3.9130   -3.6850 o         1 MOL     -0.560059
    146 C48        -5.3940    0.8350   -3.2020 c3        1 MOL     -0.397591
    147 H67        -3.1250    1.6450   -4.0230 hn        1 MOL      0.356335
    148 H68        -4.4180    1.7350   -1.4940 h1        1 MOL      0.006067
    149 H69        -4.8990   -0.1200   -3.0570 hc        1 MOL      0.103831
    150 H70        -6.4220    0.7780   -2.8270 hc        1 MOL      0.103831
    151 H71        -5.4540    1.0180   -4.2830 hc        1 MOL      0.103831
    152 N14        -6.6090    3.3820   -1.8040 n         1 MOL     -0.380104
    153 C49        -6.9520    2.6090   -0.6200 c3        1 MOL     -0.045932
    154 C50        -6.7940    3.4260    0.6510 c         1 MOL      0.436605
    155 O20        -6.7040    2.7910    1.7120 o         1 MOL     -0.508062
    156 C51        -8.4910    2.1270   -0.7070 c3        1 MOL     -0.114621
    157 C52        -8.9680    1.1700    0.3720 c3        1 MOL     -0.231510
    158 C53       -10.2580    0.3950    0.0180 c         1 MOL      0.638619
    159 O21       -11.2440    1.0700   -0.3490 o         1 MOL     -0.663570
    160 O22       -10.4480   -0.8250    0.2830 o         1 MOL     -0.663570
    161 H72        -7.1740    4.1990   -1.9940 hn        1 MOL      0.286647
    162 H73        -6.2940    1.7570   -0.5280 h1        1 MOL      0.140274
    163 H74        -8.5580    1.6360   -1.6800 hc        1 MOL      0.056610
    164 H75        -9.0890    3.0320   -0.7790 hc        1 MOL      0.056610
    165 H76        -9.0970    1.7780    1.2650 hc        1 MOL      0.084329
    166 H77        -8.1650    0.5170    0.6930 hc        1 MOL      0.084329
    167 N15        -6.7910    4.7460    0.5530 n         1 MOL     -0.231334
    168 C54        -6.6850    5.7450    1.6490 c3        1 MOL     -0.029840
    169 H78        -5.7170    6.2430    1.5930 h1        1 MOL      0.057834
    170 H79        -7.4790    6.4850    1.5450 h1        1 MOL      0.057834
    171 H80        -6.7800    5.2410    2.6110 h1        1 MOL      0.057834
    172 H81        -6.8350    5.1110   -0.3800 hn        1 MOL      0.213953
    173 Ca1         1.8880   -0.2970   -0.5880 Ca        1 MOL      1.746620
    174 O23        -0.2840   -0.4170   -1.9540 oh        1 MOL     -0.871434
    175 H82        -1.0920   -0.3200   -1.4580 ho        1 MOL      0.420589
    176 H83        -0.5670   -0.5410   -2.8580 ho        1 MOL      0.420589
    177 O24         2.7090   -0.1610   -3.1390 oh        1 MOL     -0.871434
    178 H84         2.3340    0.3980   -3.8180 ho        1 MOL      0.420589
    179 H85         2.6660   -1.0490   -3.5060 ho        1 MOL      0.420589
    180 O25         1.4870    2.2180   -1.1550 oh        1 MOL     -0.871434
    181 H86         1.3830    3.0080   -0.6280 ho        1 MOL      0.420589
    182 H87         1.4990    2.5360   -2.0590 ho        1 MOL      0.420589
@<TRIPOS>BOND
     1    1    2 1   
     2    1    4 1   
     3    1    5 1   
     4    1    6 1   
     5    2    3 2   
     6    2    7 1   
     7    7    8 1   
     8    7   15 1   
     9    8    9 1   
    10    8   11 1   
    11    8   16 1   
    12    9   10 2   
    13    9   19 1   
    14   11   12 1   
    15   11   17 1   
    16   11   18 1   
    17   12   13 1   
    18   12   14 1   
    19   19   20 1   
    20   19   28 1   
    21   20   21 1   
    22   20   23 1   
    23   20   29 1   
    24   21   22 2   
    25   21   41 1   
    26   23   24 1   
    27   23   30 1   
    28   23   31 1   
    29   24   25 1   
    30   24   32 1   
    31   24   33 1   
    32   25   26 1   
    33   25   34 1   
    34   25   35 1   
    35   26   27 1   
    36   26   36 1   
    37   26   37 1   
    38   27   38 1   
    39   27   39 1   
    40   27   40 1   
    41   41   42 1   
    42   41   49 1   
    43   42   43 1   
    44   42   45 1   
    45   42   50 1   
    46   43   44 2   
    47   43   53 1   
    48   45   46 1   
    49   45   51 1   
    50   45   52 1   
    51   46   47 1   
    52   46   48 1   
    53   53   54 1   
    54   53   57 1   
    55   54   55 1   
    56   54   58 1   
    57   54   59 1   
    58   55   56 2   
    59   55   60 1   
    60   60   61 1   
    61   60   68 1   
    62   61   62 1   
    63   61   64 1   
    64   61   69 1   
    65   62   63 2   
    66   62   74 1   
    67   64   65 1   
    68   64   70 1   
    69   64   71 1   
    70   65   66 1   
    71   65   67 2   
    72   66   72 1   
    73   66   73 1   
    74   74   75 1   
    75   74   78 1   
    76   75   76 1   
    77   75   79 1   
    78   75   80 1   
    79   76   77 2   
    80   76   81 1   
    81   81   82 1   
    82   81   93 1   
    83   82   83 1   
    84   82   85 1   
    85   82   94 1   
    86   83   84 2   
    87   83  102 1   
    88   85   86 1   
    89   85   95 1   
    90   85   96 1   
    91   86   87 ar  
    92   86   88 ar  
    93   87   89 ar  
    94   87   97 1   
    95   88   90 ar  
    96   88   98 1   
    97   89   91 ar  
    98   89   99 1   
    99   90   91 ar  
   100   90  100 1   
   101   91   92 1   
   102   92  101 1   
   103  102  103 1   
   104  102  110 1   
   105  103  104 1   
   106  103  106 1   
   107  103  111 1   
   108  104  105 2   
   109  104  121 1   
   110  106  107 1   
   111  106  108 1   
   112  106  112 1   
   113  107  109 1   
   114  107  113 1   
   115  107  114 1   
   116  108  115 1   
   117  108  116 1   
   118  108  117 1   
   119  109  118 1   
   120  109  119 1   
   121  109  120 1   
   122  121  122 1   
   123  121  127 1   
   124  122  123 1   
   125  122  125 1   
   126  122  128 1   
   127  123  124 2   
   128  123  132 1   
   129  125  126 1   
   130  125  129 1   
   131  125  130 1   
   132  126  131 1   
   133  132  133 1   
   134  132  137 1   
   135  133  134 1   
   136  133  136 1   
   137  133  138 1   
   138  134  135 2   
   139  134  142 1   
   140  136  139 1   
   141  136  140 1   
   142  136  141 1   
   143  142  143 1   
   144  142  147 1   
   145  143  144 1   
   146  143  146 1   
   147  143  148 1   
   148  144  145 2   
   149  144  152 1   
   150  146  149 1   
   151  146  150 1   
   152  146  151 1   
   153  152  153 1   
   154  152  161 1   
   155  153  154 1   
   156  153  156 1   
   157  153  162 1   
   158  154  155 2   
   159  154  167 1   
   160  156  157 1   
   161  156  163 1   
   162  156  164 1   
   163  157  158 1   
   164  157  165 1   
   165  157  166 1   
   166  158  159 1   
   167  158  160 1   
   168  167  168 1   
   169  167  172 1   
   170  168  169 1   
   171  168  170 1   
   172  168  171 1   
   173  174  175 1   
   174  174  176 1   
   175  177  178 1   
   176  177  179 1   
   177  180  181 1   
   178  180  182 1   
@<TRIPOS>SUBSTRUCTURE
     1 MOL         1 TEMP              0 ****  ****    0 ROOT
