@<TRIPOS>MOLECULE
MOL
  181   177     1     0     0
SMALL
resp


@<TRIPOS>ATOM
      1 C1         -4.3190    7.8530    0.1140 c3        1 MOL     -0.218428
      2 C2         -3.9340    6.4390   -0.3860 c         1 MOL      0.517909
      3 O1         -3.2320    6.3980   -1.4060 o         1 MOL     -0.559551
      4 H1         -5.2760    7.8060    0.6330 hc        1 MOL      0.058478
      5 H2         -3.5520    8.2180    0.7970 hc        1 MOL      0.058478
      6 H3         -4.4000    8.5300   -0.7370 hc        1 MOL      0.058478
      7 N1         -4.2420    5.3050    0.1800 n         1 MOL     -0.307259
      8 C3         -5.1500    5.0170    1.3490 c3        1 MOL      0.039912
      9 C4         -6.6920    5.0560    0.9680 c         1 MOL      0.476404
     10 O2         -7.6380    5.1450    1.7830 o         1 MOL     -0.560650
     11 C5         -4.8970    3.5830    1.9080 c3        1 MOL     -0.253033
     12 C6         -4.6140    2.4880    0.8870 c         1 MOL      0.674998
     13 O3         -3.4730    2.4840    0.2830 o         1 MOL     -0.712414
     14 O4         -5.4930    1.6780    0.5310 o         1 MOL     -0.712414
     15 H4         -3.7910    4.5270   -0.2980 hn        1 MOL      0.266725
     16 H5         -5.1170    5.8240    2.0650 h1        1 MOL      0.075361
     17 H6         -5.7780    3.2330    2.4420 hc        1 MOL      0.090750
     18 H7         -4.0740    3.5820    2.6230 hc        1 MOL      0.090750
     19 N2         -6.9670    4.8480   -0.3420 n         1 MOL     -0.393158
     20 C7         -8.3010    4.8190   -0.9080 c3        1 MOL      0.459516
     21 C8         -8.9610    3.3500   -0.8620 c         1 MOL      0.213188
     22 O5         -9.9850    3.2160   -1.5280 o         1 MOL     -0.521814
     23 C9         -8.3090    5.4880   -2.2190 c3        1 MOL     -0.489033
     24 H8         -6.2300    4.6190   -0.9960 hn        1 MOL      0.219276
     25 H9         -8.8580    5.4880   -0.2610 h1        1 MOL      0.015349
     26 H10        -8.0190    4.7660   -2.9940 hc        1 MOL      0.120359
     27 H11        -9.2520    6.0250   -2.3670 hc        1 MOL      0.120359
     28 H12        -7.6300    6.3310   -2.1060 hc        1 MOL      0.120359
     29 N3         -8.4210    2.3290   -0.2250 n         1 MOL     -0.083506
     30 C10        -8.9120    0.9670   -0.3160 c3        1 MOL      0.104047
     31 C11        -8.6620    0.1180    0.9690 c         1 MOL      0.296056
     32 O6         -9.6060   -0.5000    1.3930 o         1 MOL     -0.495995
     33 C12        -8.3000    0.2430   -1.5310 c3        1 MOL     -0.012445
     34 C13        -6.7840    0.0960   -1.5280 c         1 MOL      0.551151
     35 O7         -6.0610    0.9590   -2.0980 o         1 MOL     -0.701588
     36 O8         -6.2030   -0.8460   -0.9220 o         1 MOL     -0.701588
     37 H13        -7.7410    2.5870    0.4770 hn        1 MOL      0.105454
     38 H14        -9.9880    0.8840   -0.4460 h1        1 MOL      0.060320
     39 H15        -8.6910    0.8700   -2.3260 hc        1 MOL      0.014339
     40 H16        -8.7880   -0.7250   -1.6080 hc        1 MOL      0.014339
     41 N4         -7.5620    0.2200    1.7040 n         1 MOL     -0.127607
     42 C14        -7.2610   -0.5920    2.8830 c3        1 MOL     -0.242641
     43 C15        -7.2210   -2.1100    2.6570 c         1 MOL      0.484580
     44 O9         -7.3050   -2.9170    3.5770 o         1 MOL     -0.537552
     45 H17        -6.8870    0.9070    1.3920 hn        1 MOL      0.218426
     46 H18        -7.8420   -0.2180    3.7270 h1        1 MOL      0.112098
     47 H19        -6.2110   -0.3420    3.0380 h1        1 MOL      0.112098
     48 N5         -7.0930   -2.5350    1.3570 n         1 MOL     -0.100724
     49 C16        -6.9960   -3.9160    0.9200 c3        1 MOL      0.035404
     50 C17        -5.5890   -4.3090    0.4760 c         1 MOL      0.595760
     51 O10        -5.4010   -5.3410   -0.2240 o         1 MOL     -0.574107
     52 C18        -7.9700   -4.1460   -0.1950 c3        1 MOL     -0.334781
     53 C19        -9.3930   -4.0560    0.3830 c         1 MOL      0.784427
     54 N6        -10.2910   -3.5220   -0.3680 n         1 MOL     -0.872474
     55 O11        -9.8000   -4.5060    1.4010 o         1 MOL     -0.575851
     56 H20        -6.9930   -1.7910    0.6740 hn        1 MOL      0.122731
     57 H21        -7.1350   -4.4810    1.8430 h1        1 MOL      0.049881
     58 H22        -7.9380   -5.1510   -0.6090 hc        1 MOL      0.098078
     59 H23        -7.7650   -3.3730   -0.9210 hc        1 MOL      0.098078
     60 H24       -10.0430   -2.9500   -1.1640 hn        1 MOL      0.372787
     61 H25       -11.2030   -3.4600    0.0660 hn        1 MOL      0.372787
     62 N7         -4.5560   -3.5550    0.8880 n         1 MOL     -0.424463
     63 C20        -3.1360   -3.8700    0.6510 c3        1 MOL     -0.095240
     64 C21        -2.5840   -3.2080   -0.5960 c         1 MOL      0.899571
     65 O12        -3.1110   -2.2380   -1.0570 o         1 MOL     -0.756495
     66 H26        -4.7270   -2.6420    1.2960 hn        1 MOL      0.203294
     67 H27        -2.9210   -4.9210    0.5020 h1        1 MOL      0.104135
     68 H28        -2.6120   -3.6200    1.5660 h1        1 MOL      0.104135
     69 N8         -1.4410   -3.6910   -1.2320 n         1 MOL     -0.673929
     70 C22        -0.4890   -4.8330   -0.7810 c3        1 MOL     -0.072897
     71 C23         0.7300   -4.1300   -0.2060 c         1 MOL      0.480457
     72 O13         1.1020   -4.4720    0.9140 o         1 MOL     -0.559982
     73 C24         0.0490   -5.7570   -1.9370 c3        1 MOL      0.422938
     74 C25        -1.0620   -6.7890   -2.3160 c3        1 MOL     -0.538105
     75 O14         0.4580   -4.8660   -3.0390 oh        1 MOL     -0.620110
     76 H29        -1.1860   -3.1590   -2.0520 hn        1 MOL      0.356419
     77 H30        -0.9210   -5.5300   -0.0680 h1        1 MOL      0.103025
     78 H31         0.9570   -6.2210   -1.5670 h1        1 MOL      0.002429
     79 H32         0.8630   -5.3300   -3.7730 ho        1 MOL      0.401241
     80 H33        -1.8920   -6.2910   -2.8260 hc        1 MOL      0.144497
     81 H34        -0.5510   -7.4090   -3.0550 hc        1 MOL      0.144497
     82 H35        -1.3250   -7.3380   -1.4150 hc        1 MOL      0.144497
     83 N9          1.2820   -3.1080   -0.8830 n         1 MOL     -0.271984
     84 C26         2.4430   -2.3360   -0.3360 c3        1 MOL     -0.006515
     85 C27         2.1680   -0.8120   -0.5220 c         1 MOL      0.283742
     86 O15         1.4330   -0.4240   -1.3860 o         1 MOL     -0.456275
     87 C28         3.7530   -2.7090   -0.9970 c3        1 MOL      0.058837
     88 C29         3.9900   -2.2940   -2.4600 c3        1 MOL      0.180912
     89 C30         4.0370   -4.2270   -0.8520 c3        1 MOL     -0.339804
     90 C31         5.4750   -2.2090   -2.8830 c3        1 MOL     -0.018881
     91 H36         0.8110   -2.8190   -1.7190 hn        1 MOL      0.190519
     92 H37         2.4830   -2.6910    0.6870 h1        1 MOL      0.138592
     93 H38         4.4720   -2.1610   -0.3930 hc        1 MOL      0.017473
     94 H39         3.6810   -1.2480   -2.4800 hc        1 MOL     -0.040006
     95 H40         3.4750   -2.9420   -3.1690 hc        1 MOL     -0.040006
     96 H41         5.0250   -4.4730   -1.2280 hc        1 MOL      0.077486
     97 H42         3.9810   -4.5480    0.1860 hc        1 MOL      0.077486
     98 H43         3.2660   -4.7320   -1.4260 hc        1 MOL      0.077486
     99 H44         5.5190   -1.8330   -3.9060 hc        1 MOL     -0.020500
    100 H45         6.0970   -1.5780   -2.2400 hc        1 MOL     -0.020500
    101 H46         5.8700   -3.2230   -2.8110 hc        1 MOL     -0.020500
    102 N10         2.7520    0.0410    0.2830 n         1 MOL     -0.172811
    103 C32         3.5330   -0.1470    1.5280 c3        1 MOL     -0.098765
    104 C33         4.9990    0.0680    1.2270 c         1 MOL      0.429239
    105 O16         5.4540    1.0800    0.7040 o         1 MOL     -0.528870
    106 C34         3.0800    0.7480    2.6610 c3        1 MOL     -0.295165
    107 C35         1.5640    0.8500    2.7460 c         1 MOL      0.721550
    108 O17         1.0290    1.8970    2.3830 o         1 MOL     -0.721130
    109 O18         0.9650   -0.1110    3.2820 o         1 MOL     -0.721130
    110 H47         2.6800    1.0110   -0.0080 hn        1 MOL      0.302297
    111 H48         3.4350   -1.2150    1.7240 h1        1 MOL      0.039525
    112 H49         3.4100    1.7590    2.4380 hc        1 MOL      0.101939
    113 H50         3.5700    0.3430    3.5370 hc        1 MOL      0.101939
    114 N11         5.8380   -0.8670    1.6670 n         1 MOL     -0.159703
    115 C36         7.3320   -0.8640    1.5010 c3        1 MOL      0.176402
    116 C37         7.9180   -1.8840    0.4730 c         1 MOL      0.108016
    117 O19         7.2330   -2.9240    0.1960 o         1 MOL     -0.489700
    118 C38         7.8950   -1.2690    2.9140 c3        1 MOL      0.008250
    119 C39         7.9800   -0.1950    3.9530 ca        1 MOL     -0.036350
    120 C40         9.1420    0.6720    3.9800 ca        1 MOL     -0.143908
    121 C41         6.8540    0.0600    4.7840 ca        1 MOL     -0.143908
    122 C42         8.9960    1.8320    4.7540 ca        1 MOL     -0.121388
    123 C43         6.9340    1.0880    5.7500 ca        1 MOL     -0.121388
    124 C44         7.9590    2.0470    5.6300 ca        1 MOL     -0.075188
    125 H51         5.3980   -1.5730    2.2380 hn        1 MOL      0.200487
    126 H52         7.5620    0.1700    1.2330 h1        1 MOL      0.108551
    127 H53         8.9300   -1.5740    2.8010 hc        1 MOL      0.014976
    128 H54         7.3520   -2.1380    3.2560 hc        1 MOL      0.014976
    129 H55         9.9510    0.5150    3.2910 ha        1 MOL      0.108331
    130 H56         6.0750   -0.6870    4.7820 ha        1 MOL      0.108331
    131 H57         9.8130    2.5440    4.6980 ha        1 MOL      0.107746
    132 H58         6.0600    1.2130    6.3850 ha        1 MOL      0.107746
    133 H59         7.9650    2.9390    6.2340 ha        1 MOL      0.088086
    134 N12         9.1370   -1.5830   -0.0510 n         1 MOL      0.067944
    135 C45         9.9730   -0.5030    0.3490 c3        1 MOL      0.030884
    136 C46         9.6350    0.9380   -0.0460 c         1 MOL      0.350890
    137 O20         9.7970    1.8100    0.7770 o         1 MOL     -0.483198
    138 C47        11.3220   -0.9340   -0.2310 c3        1 MOL     -0.129579
    139 C48        11.1880   -2.3320   -0.8500 c3        1 MOL     -0.279701
    140 C49         9.7720   -2.5960   -1.0250 c3        1 MOL      0.128926
    141 H60        10.1190   -0.5020    1.4310 h1        1 MOL      0.065412
    142 H61        11.6390   -0.2510   -1.0190 hc        1 MOL      0.068962
    143 H62        12.0980   -0.8710    0.5360 hc        1 MOL      0.068962
    144 H63        11.7820   -2.3290   -1.7620 hc        1 MOL      0.088826
    145 H64        11.4760   -3.1200   -0.1520 hc        1 MOL      0.088826
    146 H65         9.3340   -2.3870   -2.0030 h1        1 MOL      0.034872
    147 H66         9.4940   -3.5890   -0.6970 h1        1 MOL      0.034872
    148 N13         9.0590    1.1440   -1.2580 n         1 MOL     -0.473226
    149 C50         8.7380    2.4790   -1.7940 c3        1 MOL      0.206908
    150 C51        10.0070    3.2490   -2.3650 c         1 MOL      0.446701
    151 O21        10.5400    2.9480   -3.3890 o         1 MOL     -0.567026
    152 C52         7.6860    2.3180   -2.9230 c3        1 MOL     -0.199878
    153 C53         6.2940    1.7470   -2.4640 c3        1 MOL     -0.062513
    154 C54         5.1150    1.9790   -3.4390 c         1 MOL      0.790706
    155 O22         5.2530    1.6550   -4.6230 o         1 MOL     -0.748097
    156 O23         4.0900    2.5620   -3.0770 o         1 MOL     -0.748097
    157 H67         8.8360    0.4150   -1.9120 hn        1 MOL      0.345326
    158 H68         8.2810    2.9300   -0.9120 h1        1 MOL      0.119487
    159 H69         8.1230    1.5690   -3.5790 hc        1 MOL      0.037073
    160 H70         7.5610    3.2800   -3.4200 hc        1 MOL      0.037073
    161 H71         6.0600    2.2640   -1.5380 hc        1 MOL     -0.010700
    162 H72         6.5010    0.6950   -2.2580 hc        1 MOL     -0.010700
    163 N14        10.6750    4.1200   -1.6720 n         1 MOL     -0.335189
    164 C55        10.3200    4.8890   -0.4290 c3        1 MOL     -0.058850
    165 H73         9.2490    4.8030   -0.2430 h1        1 MOL      0.050419
    166 H74        10.8700    4.4840    0.4200 h1        1 MOL      0.050419
    167 H75        10.5810    5.9390   -0.5640 h1        1 MOL      0.050419
    168 H76        11.5780    4.3910   -2.0220 hn        1 MOL      0.265244
    169 Ca1        -3.7830    0.2740   -0.8400 Ca        1 MOL      1.782819
    170 O24        -3.4050   -0.7650   -3.4390 oh        1 MOL     -0.790262
    171 H77        -3.9390   -0.6350   -4.2260 ho        1 MOL      0.401062
    172 H78        -3.3010   -1.7110   -3.3740 ho        1 MOL      0.401062
    173 O25        -2.7110    2.1420   -2.6370 oh        1 MOL     -0.790262
    174 H79        -3.4210    2.7000   -2.9370 ho        1 MOL      0.401062
    175 H80        -1.9190    2.6690   -2.7430 ho        1 MOL      0.401062
    176 O26        -3.1390   -0.6050    1.5020 oh        1 MOL     -0.790262
    177 H81        -3.5400   -0.1090    2.2170 ho        1 MOL      0.401062
    178 H82        -2.2960   -0.8800    1.8630 ho        1 MOL      0.401062
    179 O27        -1.1470   -0.1360   -0.3520 oh        1 MOL     -0.790262
    180 H83        -0.5250   -0.1240   -1.0750 ho        1 MOL      0.401062
    181 H84        -0.7460   -0.7370    0.2810 ho        1 MOL      0.401062
@<TRIPOS>BOND
     1    1    2 1   
     2    1    4 1   
     3    1    5 1   
     4    1    6 1   
     5    2    3 2   
     6    2    7 1   
     7    7    8 1   
     8    7   15 1   
     9    8    9 1   
    10    8   11 1   
    11    8   16 1   
    12    9   10 2   
    13    9   19 1   
    14   11   12 1   
    15   11   17 1   
    16   11   18 1   
    17   12   13 1   
    18   12   14 1   
    19   19   20 1   
    20   19   24 1   
    21   20   21 1   
    22   20   23 1   
    23   20   25 1   
    24   21   22 2   
    25   21   29 1   
    26   23   26 1   
    27   23   27 1   
    28   23   28 1   
    29   29   30 1   
    30   29   37 1   
    31   30   31 1   
    32   30   33 1   
    33   30   38 1   
    34   31   32 2   
    35   31   41 1   
    36   33   34 1   
    37   33   39 1   
    38   33   40 1   
    39   34   35 1   
    40   34   36 1   
    41   41   42 1   
    42   41   45 1   
    43   42   43 1   
    44   42   46 1   
    45   42   47 1   
    46   43   44 2   
    47   43   48 1   
    48   48   49 1   
    49   48   56 1   
    50   49   50 1   
    51   49   52 1   
    52   49   57 1   
    53   50   51 2   
    54   50   62 1   
    55   52   53 1   
    56   52   58 1   
    57   52   59 1   
    58   53   54 1   
    59   53   55 2   
    60   54   60 1   
    61   54   61 1   
    62   62   63 1   
    63   62   66 1   
    64   63   64 1   
    65   63   67 1   
    66   63   68 1   
    67   64   65 2   
    68   64   69 1   
    69   69   70 1   
    70   69   76 1   
    71   70   71 1   
    72   70   73 1   
    73   70   77 1   
    74   71   72 2   
    75   71   83 1   
    76   73   74 1   
    77   73   75 1   
    78   73   78 1   
    79   74   80 1   
    80   74   81 1   
    81   74   82 1   
    82   75   79 1   
    83   83   84 1   
    84   83   91 1   
    85   84   85 1   
    86   84   87 1   
    87   84   92 1   
    88   85   86 2   
    89   85  102 1   
    90   87   88 1   
    91   87   89 1   
    92   87   93 1   
    93   88   90 1   
    94   88   94 1   
    95   88   95 1   
    96   89   96 1   
    97   89   97 1   
    98   89   98 1   
    99   90   99 1   
   100   90  100 1   
   101   90  101 1   
   102  102  103 1   
   103  102  110 1   
   104  103  104 1   
   105  103  106 1   
   106  103  111 1   
   107  104  105 2   
   108  104  114 1   
   109  106  107 1   
   110  106  112 1   
   111  106  113 1   
   112  107  108 1   
   113  107  109 1   
   114  114  115 1   
   115  114  125 1   
   116  115  116 1   
   117  115  118 1   
   118  115  126 1   
   119  116  117 2   
   120  116  134 1   
   121  118  119 1   
   122  118  127 1   
   123  118  128 1   
   124  119  120 ar  
   125  119  121 ar  
   126  120  122 ar  
   127  120  129 1   
   128  121  123 ar  
   129  121  130 1   
   130  122  124 ar  
   131  122  131 1   
   132  123  124 ar  
   133  123  132 1   
   134  124  133 1   
   135  134  135 1   
   136  134  140 1   
   137  135  136 1   
   138  135  138 1   
   139  135  141 1   
   140  136  137 2   
   141  136  148 1   
   142  138  139 1   
   143  138  142 1   
   144  138  143 1   
   145  139  140 1   
   146  139  144 1   
   147  139  145 1   
   148  140  146 1   
   149  140  147 1   
   150  148  149 1   
   151  148  157 1   
   152  149  150 1   
   153  149  152 1   
   154  149  158 1   
   155  150  151 2   
   156  150  163 1   
   157  152  153 1   
   158  152  159 1   
   159  152  160 1   
   160  153  154 1   
   161  153  161 1   
   162  153  162 1   
   163  154  155 1   
   164  154  156 1   
   165  163  164 1   
   166  163  168 1   
   167  164  165 1   
   168  164  166 1   
   169  164  167 1   
   170  170  171 1   
   171  170  172 1   
   172  173  174 1   
   173  173  175 1   
   174  176  177 1   
   175  176  178 1   
   176  179  180 1   
   177  179  181 1   
@<TRIPOS>SUBSTRUCTURE
     1 MOL         1 TEMP              0 ****  ****    0 ROOT
