@<TRIPOS>MOLECULE
MOL
  192   187     1     0     0
SMALL
resp


@<TRIPOS>ATOM
      1 C1         -2.1650    3.3660   -3.3940 c3        1 MOL     -0.241354
      2 C2         -1.0360    3.5270   -2.3020 c         1 MOL      0.674909
      3 O1         -0.1630    2.6570   -2.0730 o         1 MOL     -0.548632
      4 H1         -1.7310    2.9600   -4.3080 hc        1 MOL      0.045633
      5 H2         -2.9340    2.6870   -3.0260 hc        1 MOL      0.045633
      6 H3         -2.6090    4.3390   -3.6050 hc        1 MOL      0.045633
      7 N1         -1.1320    4.6000   -1.5260 n         1 MOL     -0.515442
      8 C3         -0.2570    5.1470   -0.4310 c3        1 MOL      0.144619
      9 C4          1.2470    4.9820   -0.6170 c         1 MOL      0.721716
     10 O2          1.9600    4.5630    0.2990 o         1 MOL     -0.533096
     11 C5         -0.7910    4.6090    0.9410 c3        1 MOL     -0.590709
     12 C6         -2.2690    4.9670    1.1820 c         1 MOL      1.135588
     13 O3         -2.8490    5.7920    0.4410 o         1 MOL     -0.865653
     14 O4         -3.0000    4.5180    2.1500 o         1 MOL     -0.865653
     15 H4         -1.9700    5.1300   -1.7390 hn        1 MOL      0.273582
     16 H5         -0.3610    6.2250   -0.4780 h1        1 MOL      0.041159
     17 H6         -0.3820    4.9970    1.8790 hc        1 MOL      0.166804
     18 H7         -0.6700    3.5330    0.8150 hc        1 MOL      0.166804
     19 N2          1.8050    5.4680   -1.7600 n         1 MOL     -0.574138
     20 C7          3.2120    5.3610   -2.1350 c3        1 MOL     -0.036342
     21 C8          4.0570    6.2820   -1.1910 c         1 MOL      0.468709
     22 O5          3.7420    7.4150   -0.8860 o         1 MOL     -0.566561
     23 C9          3.5730    5.5660   -3.6150 c3        1 MOL      0.077413
     24 C10         3.3330    7.0160   -4.2780 c3        1 MOL     -0.023862
     25 C11         2.5820    4.6150   -4.2860 c3        1 MOL     -0.089543
     26 C12         3.6380    7.2140   -5.8340 c3        1 MOL     -0.195927
     27 H8          1.1360    5.8810   -2.4020 hn        1 MOL      0.259321
     28 H9          3.5080    4.3140   -2.0310 h1        1 MOL      0.145970
     29 H10         4.5860    5.2180   -3.7780 hc        1 MOL      0.074064
     30 H11         4.0490    7.6940   -3.8180 hc        1 MOL      0.033487
     31 H12         2.3640    7.4190   -3.9800 hc        1 MOL      0.033487
     32 H13         2.6580    3.6320   -3.8020 hc        1 MOL      0.006880
     33 H14         1.5470    4.9530   -4.2150 hc        1 MOL      0.006880
     34 H15         2.8520    4.5170   -5.3310 hc        1 MOL      0.006880
     35 H16         2.9750    6.5930   -6.4380 hc        1 MOL      0.041506
     36 H17         3.4290    8.2440   -6.1400 hc        1 MOL      0.041506
     37 H18         4.6490    6.8350   -6.0080 hc        1 MOL      0.041506
     38 N3          5.2190    5.7870   -0.7690 n         1 MOL     -0.435134
     39 C13         5.9300    4.5370   -1.1860 c3        1 MOL      0.188814
     40 C14         5.5040    3.3330   -0.3430 c         1 MOL      0.458784
     41 O6          5.3420    2.2220   -0.8470 o         1 MOL     -0.547873
     42 C15         7.4470    4.7600   -1.1020 c3        1 MOL     -0.338217
     43 C16         7.9910    5.7570   -0.0020 c         1 MOL      0.687681
     44 O7          7.2030    6.2050    0.8470 o         1 MOL     -0.691120
     45 O8          9.2350    5.9710    0.1510 o         1 MOL     -0.691120
     46 H19         5.7280    6.4260   -0.1800 hn        1 MOL      0.287617
     47 H20         5.6620    4.2330   -2.1980 h1        1 MOL     -0.028710
     48 H21         7.9150    5.1810   -1.9950 hc        1 MOL      0.072813
     49 H22         7.9540    3.8030   -0.9770 hc        1 MOL      0.072813
     50 N4          5.3490    3.6310    0.9420 n         1 MOL     -0.296299
     51 C17         4.8350    2.6770    1.9930 c3        1 MOL     -0.135048
     52 C18         5.7360    1.4530    2.2570 c         1 MOL      0.593043
     53 O9          6.8270    1.2700    1.6790 o         1 MOL     -0.525086
     54 H23         5.6650    4.5160    1.3190 hn        1 MOL      0.296697
     55 H24         3.8710    2.2960    1.6310 h1        1 MOL      0.084665
     56 H25         4.6580    3.2820    2.8830 h1        1 MOL      0.084665
     57 N5          5.1360    0.4610    2.9340 n         1 MOL     -0.427207
     58 C19         5.7950   -0.8200    3.2950 c3        1 MOL     -0.040643
     59 C20         6.3330   -1.6920    2.0950 c         1 MOL      0.501150
     60 O10         7.2050   -2.4720    2.3430 o         1 MOL     -0.534272
     61 C21         4.8290   -1.7190    4.1930 c3        1 MOL     -0.314154
     62 C22         4.5610   -1.0390    5.5100 c         1 MOL      0.728544
     63 O11         3.3950   -0.7270    5.8520 o         1 MOL     -0.691581
     64 O12         5.5290   -0.8120    6.2990 o         1 MOL     -0.691581
     65 H26         4.1830    0.5940    3.2470 hn        1 MOL      0.273839
     66 H27         6.6270   -0.6510    3.9670 h1        1 MOL      0.106228
     67 H28         5.3790   -2.6530    4.3180 hc        1 MOL      0.072361
     68 H29         3.8970   -1.8420    3.6380 hc        1 MOL      0.072361
     69 N6          5.9070   -1.4960    0.8150 n         1 MOL     -0.152071
     70 C23         6.3900   -2.2050   -0.3960 c3        1 MOL     -0.278407
     71 C24         6.0830   -3.6740   -0.5840 c         1 MOL      0.483361
     72 O13         6.7290   -4.2620   -1.4500 o         1 MOL     -0.530917
     73 H30         5.1120   -0.8650    0.7470 hn        1 MOL      0.186459
     74 H31         7.4600   -2.0120   -0.4610 h1        1 MOL      0.143523
     75 H32         6.0520   -1.6310   -1.2620 h1        1 MOL      0.143523
     76 N7          5.2120   -4.2160    0.2310 n         1 MOL     -0.116787
     77 C25         4.7200   -5.5920    0.2030 c3        1 MOL     -0.004525
     78 C26         4.1670   -6.0650   -1.2090 c         1 MOL      0.600840
     79 O14         4.3530   -7.2110   -1.6390 o         1 MOL     -0.521292
     80 C27         5.7560   -6.4960    0.9180 c3        1 MOL     -0.004674
     81 C28         5.9920   -6.0290    2.3860 c3        1 MOL     -0.002550
     82 C29         6.3440   -7.1090    3.3620 c         1 MOL      0.506715
     83 N8          6.6920   -6.7890    4.5870 n         1 MOL     -0.739849
     84 O15         6.1180   -8.2910    3.0740 o         1 MOL     -0.541349
     85 H33         4.9310   -3.6850    1.0450 hn        1 MOL      0.121319
     86 H34         3.8240   -5.5110    0.8090 h1        1 MOL      0.058993
     87 H35         6.6430   -6.5160    0.2830 hc        1 MOL      0.014622
     88 H36         5.3920   -7.5250    0.9500 hc        1 MOL      0.014622
     89 H37         5.1730   -5.4470    2.8070 hc        1 MOL      0.028068
     90 H38         6.7860   -5.2730    2.3190 hc        1 MOL      0.028068
     91 H39         6.8350   -5.7900    4.7200 hn        1 MOL      0.362144
     92 H40         6.8040   -7.5810    5.2000 hn        1 MOL      0.362144
     93 N9          3.4710   -5.1550   -1.8540 n         1 MOL     -0.515731
     94 C30         2.7900   -5.3720   -3.1710 c3        1 MOL     -0.096928
     95 C31         1.3360   -4.9040   -3.2940 c         1 MOL      0.487424
     96 O16         0.6050   -5.3750   -4.1420 o         1 MOL     -0.559020
     97 C32         3.5060   -4.6310   -4.3240 c3        1 MOL      0.228261
     98 C33         3.6920   -3.1520   -4.0990 c3        1 MOL     -0.385061
     99 C34         4.9290   -5.1700   -4.5230 c3        1 MOL     -0.385061
    100 H41         3.4940   -4.2240   -1.4440 hn        1 MOL      0.173571
    101 H42         2.8710   -6.4530   -3.3290 h1        1 MOL      0.139397
    102 H43         2.9710   -4.8600   -5.2430 hc        1 MOL      0.004967
    103 H44         4.1000   -3.0030   -3.0990 hc        1 MOL      0.101927
    104 H45         4.3230   -2.7660   -4.8930 hc        1 MOL      0.101927
    105 H46         2.7500   -2.6090   -4.1080 hc        1 MOL      0.101927
    106 H47         5.2000   -5.0210   -5.5730 hc        1 MOL      0.101927
    107 H48         5.6100   -4.6000   -3.8960 hc        1 MOL      0.101927
    108 H49         5.0420   -6.2140   -4.2330 hc        1 MOL      0.101927
    109 N10         0.9750   -3.9590   -2.4650 n         1 MOL     -0.146900
    110 C35        -0.2600   -3.2690   -2.2940 c3        1 MOL      0.001556
    111 C36        -0.8120   -3.5770   -0.9140 c         1 MOL      0.505925
    112 O17        -0.2080   -4.3500   -0.1510 o         1 MOL     -0.572308
    113 C37         0.0450   -1.7790   -2.6080 c3        1 MOL     -0.273936
    114 C38        -1.2270   -0.8750   -2.6770 c         1 MOL      0.592075
    115 N11        -2.1860   -1.2490   -3.5480 n         1 MOL     -0.791815
    116 O18        -1.5370   -0.0410   -1.8410 o         1 MOL     -0.466188
    117 H50         1.6640   -3.7060   -1.7700 hn        1 MOL      0.241337
    118 H51        -0.9110   -3.7310   -3.0320 h1        1 MOL      0.063297
    119 H52         0.4860   -1.7050   -3.5990 hc        1 MOL      0.088683
    120 H53         0.9410   -1.4190   -2.0770 hc        1 MOL      0.088683
    121 H54        -1.9730   -2.0390   -4.1310 hn        1 MOL      0.369565
    122 H55        -3.0360   -0.7130   -3.5870 hn        1 MOL      0.369565
    123 N12        -1.9270   -3.0050   -0.5510 n         1 MOL     -0.203031
    124 C39        -2.8550   -3.4750    0.5050 c3        1 MOL      0.025096
    125 C40        -4.2540   -3.1000    0.1400 c         1 MOL      0.259934
    126 O19        -4.4990   -2.1670   -0.6830 o         1 MOL     -0.507082
    127 C41        -2.3460   -2.9110    1.8450 c3        1 MOL     -0.151030
    128 C42        -2.6800   -1.5090    2.2350 ca        1 MOL      0.029096
    129 C43        -2.0210   -0.4460    1.5660 ca        1 MOL     -0.155724
    130 C44        -3.6240   -1.2280    3.2760 ca        1 MOL     -0.155724
    131 C45        -2.2520    0.8610    2.0130 ca        1 MOL     -0.164680
    132 C46        -3.9150    0.1120    3.6790 ca        1 MOL     -0.164680
    133 C47        -3.1780    1.1870    3.0290 ca        1 MOL      0.235177
    134 O20        -3.3280    2.4030    3.6020 oh        1 MOL     -0.527799
    135 H56        -2.3500   -2.4360   -1.2690 hn        1 MOL      0.195237
    136 H57        -2.7940   -4.5590    0.5740 h1        1 MOL      0.085659
    137 H58        -1.2650   -2.9890    1.8040 hc        1 MOL      0.080505
    138 H59        -2.6170   -3.6030    2.6470 hc        1 MOL      0.080505
    139 H60        -1.2910   -0.6390    0.8050 ha        1 MOL      0.108257
    140 H61        -4.0340   -2.0320    3.8700 ha        1 MOL      0.108257
    141 H62        -1.7250    1.7060    1.5960 ha        1 MOL      0.118167
    142 H63        -4.6270    0.3750    4.4490 ha        1 MOL      0.118167
    143 H64        -3.1280    3.1750    3.0780 ho        1 MOL      0.408095
    144 N13        -5.2060   -3.9320    0.5900 n         1 MOL     -0.321797
    145 C48        -6.5920   -3.7630    0.1350 c3        1 MOL      0.379663
    146 C49        -7.4020   -3.0940    1.2060 c         1 MOL      0.297078
    147 O21        -7.6720   -3.7450    2.2000 o         1 MOL     -0.548022
    148 C50        -7.1160   -5.1920   -0.1930 c3        1 MOL     -0.036953
    149 C51        -6.2830   -5.8430   -1.3320 c3        1 MOL     -0.256067
    150 C52        -7.0050   -7.2050   -1.7230 c         1 MOL      0.700657
    151 O22        -7.0940   -7.6090   -2.9430 o         1 MOL     -0.688103
    152 O23        -7.2420   -8.0720   -0.8190 o         1 MOL     -0.688103
    153 H65        -5.0670   -4.5500    1.3720 hn        1 MOL      0.311419
    154 H66        -6.5830   -3.1460   -0.7710 h1        1 MOL      0.038574
    155 H67        -8.1180   -5.1240   -0.6210 hc        1 MOL      0.015001
    156 H68        -7.0110   -5.8670    0.6510 hc        1 MOL      0.015001
    157 H69        -5.2650   -6.0190   -0.9720 hc        1 MOL      0.030196
    158 H70        -6.4840   -5.2050   -2.1930 hc        1 MOL      0.030196
    159 N14        -7.7250   -1.8080    1.1390 n         1 MOL     -0.250823
    160 C53        -7.1920   -0.8440    0.1870 c3        1 MOL     -0.511417
    161 C54        -7.7080   -1.0860   -1.2430 c         1 MOL      0.616756
    162 O24        -8.8880   -1.4360   -1.3710 o         1 MOL     -0.549235
    163 C55        -7.5640    0.5680    0.7040 c3        1 MOL      0.029650
    164 C56        -6.9560    0.9220    2.0120 c3        1 MOL     -0.028492
    165 C57        -7.3030    2.3580    2.5180 c         1 MOL      0.603766
    166 O25        -6.4420    3.3060    2.2560 o         1 MOL     -0.672058
    167 O26        -8.4410    2.5070    3.0160 o         1 MOL     -0.672058
    168 H71        -8.3340   -1.4850    1.8710 hn        1 MOL      0.308077
    169 H72        -6.0980   -0.9030    0.2670 h1        1 MOL      0.259439
    170 H73        -8.6370    0.4860    0.8440 hc        1 MOL      0.024103
    171 H74        -7.3270    1.3320   -0.0380 hc        1 MOL      0.024103
    172 H75        -5.8750    0.8870    1.8560 hc        1 MOL      0.010201
    173 H76        -7.2850    0.1740    2.7500 hc        1 MOL      0.010201
    174 N15        -6.9500   -0.8170   -2.2950 n         1 MOL     -0.284526
    175 C58        -7.3190   -0.8830   -3.7200 c3        1 MOL     -0.221613
    176 H77        -6.4980   -1.3230   -4.2870 h1        1 MOL      0.099787
    177 H78        -8.2110   -1.4980   -3.8360 h1        1 MOL      0.099787
    178 H79        -7.5190    0.1220   -4.0910 h1        1 MOL      0.099787
    179 H80        -5.9660   -0.7130   -2.0750 hn        1 MOL      0.229836
    180 Ca1        -5.2740    5.3580    1.1950 Ca        1 MOL      1.831398
    181 O27        -7.5330    4.4960   -0.1720 oh        1 MOL     -0.980422
    182 H81        -7.6680    4.1000   -1.0310 ho        1 MOL      0.447772
    183 H82        -8.3600    4.3540    0.2950 ho        1 MOL      0.447772
    184 O28        -4.6890    3.3760   -0.7160 oh        1 MOL     -0.980422
    185 H83        -5.4750    3.2850   -1.2510 ho        1 MOL      0.447772
    186 H84        -4.3490    2.4790   -0.6490 ho        1 MOL      0.447772
    187 O29        -5.1350    7.8350    1.5080 oh        1 MOL     -0.980422
    188 H85        -4.4870    8.4500    1.8650 ho        1 MOL      0.447772
    189 H86        -5.8280    8.3970    1.1450 ho        1 MOL      0.447772
    190 O30        -5.7880    6.0960    3.6570 oh        1 MOL     -0.980422
    191 H87        -6.0000    5.5000    4.3750 ho        1 MOL      0.447772
    192 H88        -5.6040    6.9320    4.0890 ho        1 MOL      0.447772
@<TRIPOS>BOND
     1    1    2 1   
     2    1    4 1   
     3    1    5 1   
     4    1    6 1   
     5    2    3 2   
     6    2    7 1   
     7    7    8 1   
     8    7   15 1   
     9    8    9 1   
    10    8   11 1   
    11    8   16 1   
    12    9   10 2   
    13    9   19 1   
    14   11   12 1   
    15   11   17 1   
    16   11   18 1   
    17   12   13 1   
    18   12   14 1   
    19   19   20 1   
    20   19   27 1   
    21   20   21 1   
    22   20   23 1   
    23   20   28 1   
    24   21   22 2   
    25   21   38 1   
    26   23   24 1   
    27   23   25 1   
    28   23   29 1   
    29   24   26 1   
    30   24   30 1   
    31   24   31 1   
    32   25   32 1   
    33   25   33 1   
    34   25   34 1   
    35   26   35 1   
    36   26   36 1   
    37   26   37 1   
    38   38   39 1   
    39   38   46 1   
    40   39   40 1   
    41   39   42 1   
    42   39   47 1   
    43   40   41 2   
    44   40   50 1   
    45   42   43 1   
    46   42   48 1   
    47   42   49 1   
    48   43   44 1   
    49   43   45 1   
    50   50   51 1   
    51   50   54 1   
    52   51   52 1   
    53   51   55 1   
    54   51   56 1   
    55   52   53 2   
    56   52   57 1   
    57   57   58 1   
    58   57   65 1   
    59   58   59 1   
    60   58   61 1   
    61   58   66 1   
    62   59   60 2   
    63   59   69 1   
    64   61   62 1   
    65   61   67 1   
    66   61   68 1   
    67   62   63 1   
    68   62   64 1   
    69   69   70 1   
    70   69   73 1   
    71   70   71 1   
    72   70   74 1   
    73   70   75 1   
    74   71   72 2   
    75   71   76 1   
    76   76   77 1   
    77   76   85 1   
    78   77   78 1   
    79   77   80 1   
    80   77   86 1   
    81   78   79 2   
    82   78   93 1   
    83   80   81 1   
    84   80   87 1   
    85   80   88 1   
    86   81   82 1   
    87   81   89 1   
    88   81   90 1   
    89   82   83 1   
    90   82   84 2   
    91   83   91 1   
    92   83   92 1   
    93   93   94 1   
    94   93  100 1   
    95   94   95 1   
    96   94   97 1   
    97   94  101 1   
    98   95   96 2   
    99   95  109 1   
   100   97   98 1   
   101   97   99 1   
   102   97  102 1   
   103   98  103 1   
   104   98  104 1   
   105   98  105 1   
   106   99  106 1   
   107   99  107 1   
   108   99  108 1   
   109  109  110 1   
   110  109  117 1   
   111  110  111 1   
   112  110  113 1   
   113  110  118 1   
   114  111  112 2   
   115  111  123 1   
   116  113  114 1   
   117  113  119 1   
   118  113  120 1   
   119  114  115 1   
   120  114  116 2   
   121  115  121 1   
   122  115  122 1   
   123  123  124 1   
   124  123  135 1   
   125  124  125 1   
   126  124  127 1   
   127  124  136 1   
   128  125  126 2   
   129  125  144 1   
   130  127  128 1   
   131  127  137 1   
   132  127  138 1   
   133  128  129 ar  
   134  128  130 ar  
   135  129  131 ar  
   136  129  139 1   
   137  130  132 ar  
   138  130  140 1   
   139  131  133 ar  
   140  131  141 1   
   141  132  133 ar  
   142  132  142 1   
   143  133  134 1   
   144  134  143 1   
   145  144  145 1   
   146  144  153 1   
   147  145  146 1   
   148  145  148 1   
   149  145  154 1   
   150  146  147 2   
   151  146  159 1   
   152  148  149 1   
   153  148  155 1   
   154  148  156 1   
   155  149  150 1   
   156  149  157 1   
   157  149  158 1   
   158  150  151 1   
   159  150  152 1   
   160  159  160 1   
   161  159  168 1   
   162  160  161 1   
   163  160  163 1   
   164  160  169 1   
   165  161  162 2   
   166  161  174 1   
   167  163  164 1   
   168  163  170 1   
   169  163  171 1   
   170  164  165 1   
   171  164  172 1   
   172  164  173 1   
   173  165  166 1   
   174  165  167 1   
   175  174  175 1   
   176  174  179 1   
   177  175  176 1   
   178  175  177 1   
   179  175  178 1   
   180  181  182 1   
   181  181  183 1   
   182  184  185 1   
   183  184  186 1   
   184  187  188 1   
   185  187  189 1   
   186  190  191 1   
   187  190  192 1   
@<TRIPOS>SUBSTRUCTURE
     1 MOL         1 TEMP              0 ****  ****    0 ROOT
