@<TRIPOS>MOLECULE
MOL
  201   193     1     0     0
SMALL
resp


@<TRIPOS>ATOM
      1 C1        -11.0160    6.0810    2.4340 c3        1 MOL     -0.504066
      2 C2        -11.0860    4.6010    1.9040 c         1 MOL      0.733634
      3 O1        -11.7620    3.7480    2.4730 o         1 MOL     -0.614011
      4 H1        -10.5000    6.0980    3.3950 hc        1 MOL      0.131084
      5 H2        -10.4720    6.6980    1.7190 hc        1 MOL      0.131084
      6 H3        -12.0260    6.4720    2.5580 hc        1 MOL      0.131084
      7 N1        -10.3320    4.3760    0.8430 n         1 MOL     -0.512009
      8 C3        -10.2570    3.0890    0.1070 c3        1 MOL      0.290921
      9 C4         -9.3160    2.0180    0.7880 c         1 MOL      0.101209
     10 O2         -8.3750    2.2820    1.5420 o         1 MOL     -0.399804
     11 C5         -9.7980    3.3830   -1.3580 c3        1 MOL     -0.370207
     12 C6         -8.4920    4.2320   -1.3700 c         1 MOL      0.735726
     13 O3         -8.5810    5.4060   -1.1410 o         1 MOL     -0.624315
     14 O4         -7.3710    3.6530   -1.4600 o         1 MOL     -0.624315
     15 H4         -9.9840    5.1760    0.3420 hn        1 MOL      0.190950
     16 H5        -11.2780    2.7160    0.1370 h1        1 MOL      0.027953
     17 H6        -10.5910    4.0150   -1.7700 hc        1 MOL      0.109239
     18 H7         -9.8120    2.4880   -1.9600 hc        1 MOL      0.109239
     19 N2         -9.6130    0.7310    0.4880 n         1 MOL     -0.027412
     20 C7         -9.1190   -0.3620    1.3010 c3        1 MOL     -0.035048
     21 C8         -7.9750   -1.1910    0.6150 c         1 MOL      0.472803
     22 O5         -7.4530   -2.1300    1.2220 o         1 MOL     -0.558469
     23 C9        -10.2940   -1.3260    1.6010 c3        1 MOL      0.013044
     24 C10       -11.2660   -0.7480    2.7140 c3        1 MOL      0.272748
     25 C11       -12.2390   -1.8530    3.2160 c3        1 MOL     -0.061192
     26 C12       -13.4010   -1.3710    4.0870 c3        1 MOL     -0.076361
     27 N3        -14.5140   -0.6720    3.3280 n4        1 MOL     -0.258364
     28 H8        -10.3490    0.5910   -0.1960 hn        1 MOL      0.180522
     29 H9         -8.7170   -0.0550    2.2630 h1        1 MOL      0.067671
     30 H10        -9.9260   -2.2400    2.0580 hc        1 MOL     -0.000881
     31 H11       -10.8330   -1.6620    0.7190 hc        1 MOL     -0.000881
     32 H12       -11.8860    0.0000    2.2300 hc        1 MOL     -0.066774
     33 H13       -10.6620   -0.3360    3.5130 hc        1 MOL     -0.066774
     34 H14       -11.6400   -2.5690    3.7850 hc        1 MOL      0.047833
     35 H15       -12.7200   -2.3240    2.3600 hc        1 MOL      0.047833
     36 H16       -13.0550   -0.8020    4.9490 hx        1 MOL      0.107111
     37 H17       -13.8670   -2.2600    4.5090 hx        1 MOL      0.107111
     38 H18       -14.2380    0.2450    3.0130 hn        1 MOL      0.274101
     39 H19       -14.9200   -1.2060    2.5710 hn        1 MOL      0.274101
     40 H20       -15.2520   -0.4970    3.9990 hn        1 MOL      0.274101
     41 N4         -7.8400   -0.9680   -0.6540 n         1 MOL     -0.316106
     42 C13        -7.1670   -1.9030   -1.6410 c3        1 MOL      0.273779
     43 C14        -6.2000   -1.2070   -2.5940 c         1 MOL      0.505220
     44 O6         -6.3080   -0.0310   -2.9030 o         1 MOL     -0.512515
     45 C15        -8.2330   -2.7800   -2.2950 c3        1 MOL     -0.167368
     46 C16        -9.4210   -2.1470   -2.9740 c         1 MOL      0.662039
     47 O7         -9.5900   -0.8840   -3.0170 o         1 MOL     -0.664328
     48 O8        -10.2350   -2.8910   -3.6130 o         1 MOL     -0.664328
     49 H21        -8.2600   -0.2220   -1.1900 hn        1 MOL      0.113610
     50 H22        -6.5390   -2.5720   -1.0540 h1        1 MOL      0.008808
     51 H23        -8.6460   -3.4020   -1.4990 hc        1 MOL      0.040736
     52 H24        -7.7780   -3.4850   -2.9900 hc        1 MOL      0.040736
     53 N5         -5.1150   -1.8230   -3.1290 n         1 MOL     -0.475176
     54 C17        -4.7790   -3.2060   -3.0660 c3        1 MOL     -0.223709
     55 C18        -4.2520   -3.8350   -1.8370 c         1 MOL      0.822117
     56 O9         -3.7520   -3.1440   -0.9350 o         1 MOL     -0.644741
     57 H25        -4.4340   -1.2260   -3.5680 hn        1 MOL      0.347807
     58 H26        -3.9150   -3.2890   -3.7300 h1        1 MOL      0.101281
     59 H27        -5.5650   -3.8220   -3.5000 h1        1 MOL      0.101281
     60 N6         -4.2710   -5.1650   -1.8490 n         1 MOL     -0.552548
     61 C19        -3.7280   -5.9680   -0.7710 c3        1 MOL     -0.013498
     62 C20        -2.1300   -6.0770   -0.7900 c         1 MOL      0.512350
     63 O10        -1.4780   -6.7410    0.0440 o         1 MOL     -0.517586
     64 C21        -4.2760   -7.3690   -0.8960 c3        1 MOL     -0.054050
     65 C22        -3.9060   -7.9940   -2.2110 c         1 MOL      0.677428
     66 O11        -3.1310   -8.9920   -2.2000 o         1 MOL     -0.625970
     67 O12        -4.4050   -7.6550   -3.2910 o         1 MOL     -0.625970
     68 H28        -4.7730   -5.6020   -2.6100 hn        1 MOL      0.224641
     69 H29        -3.8700   -5.5870    0.2360 h1        1 MOL      0.089634
     70 H30        -5.3620   -7.4890   -0.9120 hc        1 MOL      0.025562
     71 H31        -3.9180   -7.9670   -0.0570 hc        1 MOL      0.025562
     72 N7         -1.4420   -5.3900   -1.6770 n         1 MOL     -0.322346
     73 C23         0.0210   -5.4160   -1.7070 c3        1 MOL     -0.031397
     74 C24         0.7310   -4.3370   -0.7950 c         1 MOL      0.514383
     75 O13         1.8930   -4.0340   -1.0030 o         1 MOL     -0.559094
     76 H32        -1.9260   -4.8070   -2.3460 hn        1 MOL      0.251652
     77 H33         0.3550   -5.2530   -2.7340 h1        1 MOL      0.073210
     78 H34         0.3400   -6.4160   -1.4450 h1        1 MOL      0.073210
     79 N8          0.0370   -3.9220    0.2670 n         1 MOL     -0.153653
     80 C25         0.5050   -3.1010    1.3940 c3        1 MOL     -0.132098
     81 C26         0.6220   -1.6480    1.1030 c         1 MOL      0.526668
     82 O14         0.1510   -1.2640    0.0320 o         1 MOL     -0.488034
     83 C27        -0.3930   -3.3070    2.6200 c3        1 MOL      0.198958
     84 C28        -1.8130   -2.8990    2.3220 c3        1 MOL     -0.276548
     85 O15        -0.5830   -4.6830    2.9830 oh        1 MOL     -0.566607
     86 H35        -0.9390   -4.1700    0.3680 hn        1 MOL      0.120394
     87 H36         1.5100   -3.4740    1.6020 h1        1 MOL      0.094492
     88 H37         0.0170   -2.8150    3.4920 h1        1 MOL      0.027377
     89 H38        -0.4360   -4.6830    3.9340 ho        1 MOL      0.381341
     90 H39        -1.9040   -1.8560    2.0160 hc        1 MOL      0.100285
     91 H40        -2.1490   -3.4690    1.4500 hc        1 MOL      0.100285
     92 H41        -2.4870   -3.1270    3.1400 hc        1 MOL      0.100285
     93 N9          1.5280   -0.9570    1.7550 n         1 MOL     -0.448346
     94 C29         2.0910    0.3800    1.4010 c3        1 MOL      0.007880
     95 C30         3.3400    0.3230    0.5110 c         1 MOL      0.570535
     96 O16         3.5120    1.1000   -0.4290 o         1 MOL     -0.512429
     97 C31         2.2610    1.2040    2.6830 c3        1 MOL      0.170315
     98 C32         0.9130    1.3690    3.4100 c3        1 MOL     -0.069227
     99 C33         2.7830    2.6070    2.4660 c3        1 MOL     -0.381785
    100 C34        -0.1680    2.0100    2.5840 c3        1 MOL     -0.254031
    101 H42         2.0480   -1.4280    2.4880 hn        1 MOL      0.257636
    102 H43         1.4030    0.8380    0.6940 h1        1 MOL      0.076954
    103 H44         2.9440    0.6340    3.3160 hc        1 MOL      0.004477
    104 H45         0.9900    1.9380    4.3350 hc        1 MOL      0.015056
    105 H46         0.5400    0.4180    3.7760 hc        1 MOL      0.015056
    106 H47         2.8440    3.1050    3.4410 hc        1 MOL      0.101747
    107 H48         3.7800    2.3790    2.0880 hc        1 MOL      0.101747
    108 H49         2.1550    3.0130    1.6690 hc        1 MOL      0.101747
    109 H50        -1.1260    2.1170    3.0870 hc        1 MOL      0.088005
    110 H51         0.0020    3.0760    2.4260 hc        1 MOL      0.088005
    111 H52        -0.3300    1.5280    1.6150 hc        1 MOL      0.088005
    112 N10         4.2110   -0.6690    0.8410 n         1 MOL     -0.499977
    113 C35         5.4320   -1.0930    0.1000 c3        1 MOL     -0.162436
    114 C36         6.4350   -1.7320    1.0710 c         1 MOL      0.795495
    115 O17         6.0360   -2.3780    2.0080 o         1 MOL     -0.542453
    116 C37         5.0230   -2.2120   -0.8760 c3        1 MOL      0.375050
    117 C38         4.0290   -1.7660   -1.9090 c3        1 MOL     -0.451130
    118 O18         6.1630   -2.6170   -1.6420 oh        1 MOL     -0.673468
    119 H53         3.9530   -1.1900    1.6720 hn        1 MOL      0.266635
    120 H54         5.8800   -0.3160   -0.5100 h1        1 MOL      0.160124
    121 H55         4.7810   -3.1070   -0.2870 h1        1 MOL      0.034435
    122 H56         5.8580   -3.1570   -2.3670 ho        1 MOL      0.413504
    123 H57         3.7020   -2.6090   -2.5240 hc        1 MOL      0.135465
    124 H58         3.1120   -1.3360   -1.4910 hc        1 MOL      0.135465
    125 H59         4.4760   -0.9420   -2.4590 hc        1 MOL      0.135465
    126 N11         7.7740   -1.5710    0.7950 n         1 MOL     -0.695763
    127 C39         8.8160   -2.0360    1.6690 c3        1 MOL     -0.044681
    128 C40        10.0290   -1.0900    1.7660 c         1 MOL      0.681343
    129 O19        10.5330   -0.7730    2.8590 o         1 MOL     -0.583027
    130 C41         9.3020   -3.4020    1.2510 c3        1 MOL      0.417567
    131 C42        10.2180   -4.0540    2.3080 c3        1 MOL     -0.242356
    132 O20         9.9200   -3.3860   -0.0070 oh        1 MOL     -0.626290
    133 H60         8.0680   -1.1960   -0.0910 hn        1 MOL      0.296013
    134 H61         8.3880   -2.1200    2.6640 h1        1 MOL      0.102094
    135 H62         8.4240   -4.0550    1.1680 h1        1 MOL      0.014338
    136 H63         9.4750   -2.7540   -0.5750 ho        1 MOL      0.393594
    137 H64         9.8700   -3.9360    3.3440 hc        1 MOL      0.054089
    138 H65        10.3290   -5.1060    2.0260 hc        1 MOL      0.054089
    139 H66        11.2050   -3.6080    2.2490 hc        1 MOL      0.054089
    140 N12        10.5230   -0.6110    0.6040 n         1 MOL     -0.496729
    141 C43        11.5680    0.3980    0.4680 c3        1 MOL      0.139716
    142 C44        11.2350    1.3690   -0.6860 c         1 MOL      0.418490
    143 O21        10.3360    1.0390   -1.5060 o         1 MOL     -0.451874
    144 C45        12.8930   -0.2860    0.2500 c3        1 MOL     -0.245961
    145 C46        13.1660   -1.5470    1.0670 c3        1 MOL      0.081111
    146 C47        14.5920   -2.0230    0.9490 c3        1 MOL     -0.174145
    147 C48        15.6100   -1.1600    1.6790 c3        1 MOL      0.159119
    148 N13        16.8930   -1.8840    1.7920 n4        1 MOL     -0.462525
    149 H67        10.1300   -0.8690   -0.2890 hn        1 MOL      0.265706
    150 H68        11.7290    0.9060    1.4190 h1        1 MOL      0.056779
    151 H69        13.7600    0.3730    0.2800 hc        1 MOL      0.078854
    152 H70        12.8960   -0.6870   -0.7610 hc        1 MOL      0.078854
    153 H71        12.5480   -2.3190    0.6320 hc        1 MOL      0.041491
    154 H72        12.9190   -1.4380    2.1250 hc        1 MOL      0.041491
    155 H73        14.9100   -2.1520   -0.0840 hc        1 MOL      0.067338
    156 H74        14.5530   -3.0410    1.3410 hc        1 MOL      0.067338
    157 H75        15.2450   -0.9300    2.6750 hx        1 MOL      0.058802
    158 H76        15.7290   -0.1610    1.2390 hx        1 MOL      0.058802
    159 H77        17.3480   -2.0770    0.9200 hn        1 MOL      0.352682
    160 H78        17.5710   -1.2980    2.2550 hn        1 MOL      0.352682
    161 H79        16.8070   -2.6810    2.4050 hn        1 MOL      0.352682
    162 N14        11.8630    2.5190   -0.7850 n         1 MOL     -0.506701
    163 C49        11.4750    3.6790   -1.6060 c3        1 MOL      0.221314
    164 C50         9.9970    3.9230   -1.7680 c         1 MOL      0.326955
    165 O22         9.4460    3.7240   -2.8710 o         1 MOL     -0.490566
    166 C51        12.3070    4.8960   -1.2990 c3        1 MOL      0.020225
    167 C52        13.7770    4.7700   -1.7890 c3        1 MOL     -0.236026
    168 C53        14.4660    6.1560   -1.7120 c         1 MOL      0.722800
    169 O23        14.8160    6.5430   -0.5950 o         1 MOL     -0.721150
    170 O24        14.5590    6.8570   -2.7660 o         1 MOL     -0.721150
    171 H80        12.5880    2.6810   -0.0960 hn        1 MOL      0.304058
    172 H81        11.7330    3.3840   -2.6250 h1        1 MOL      0.074296
    173 H82        12.2620    5.1610   -0.2420 hc        1 MOL      0.039015
    174 H83        11.8820    5.7280   -1.8580 hc        1 MOL      0.039015
    175 H84        13.8060    4.4480   -2.8210 hc        1 MOL      0.001966
    176 H85        14.3640    4.1320   -1.1170 hc        1 MOL      0.001966
    177 N15         9.2080    4.0660   -0.6540 n         1 MOL     -0.352114
    178 C54         9.7550    4.5850    0.6440 c3        1 MOL      0.009703
    179 H86         9.3580    3.9910    1.4680 h1        1 MOL      0.029221
    180 H87        10.8420    4.5130    0.6360 h1        1 MOL      0.029221
    181 H88         9.4610    5.6270    0.7730 h1        1 MOL      0.029221
    182 H89         8.2110    4.1180   -0.7880 hn        1 MOL      0.297013
    183 Ca1        -6.0840    5.7520   -0.4980 Ca        1 MOL      1.703958
    184 O25        -4.3930    4.3940   -2.4120 oh        1 MOL     -0.838906
    185 H90        -4.1120    4.8520   -3.2160 ho        1 MOL      0.397849
    186 H91        -4.2170    3.4760   -2.5950 ho        1 MOL      0.397849
    187 O26        -4.0880    7.4190   -1.5350 oh        1 MOL     -0.838906
    188 H92        -3.8760    8.1440   -0.9510 ho        1 MOL      0.397849
    189 H93        -3.7580    7.7010   -2.3860 ho        1 MOL      0.397849
    190 O27        -7.1790    4.6740    1.6310 oh        1 MOL     -0.838906
    191 H94        -7.8810    4.0560    1.4450 ho        1 MOL      0.397849
    192 H95        -7.2190    4.8080    2.5790 ho        1 MOL      0.397849
    193 O28        -7.2130    8.0330    0.3120 oh        1 MOL     -0.838906
    194 H96        -6.5850    8.7300    0.5390 ho        1 MOL      0.397849
    195 H97        -7.9260    8.4870   -0.1250 ho        1 MOL      0.397849
    196 O29        -6.7570    6.4660   -2.9480 oh        1 MOL     -0.838906
    197 H98        -6.8790    6.0200   -3.7920 ho        1 MOL      0.397849
    198 H99        -6.2520    7.2460   -3.1660 ho        1 MOL      0.397849
    199 O30        -4.5660    3.9030    0.9550 oh        1 MOL     -0.838906
    200 H100       -4.6270    3.6750    1.8730 ho        1 MOL      0.397849
    201 H101       -4.5400    3.0680    0.4920 ho        1 MOL      0.397849
@<TRIPOS>BOND
     1    1    2 1   
     2    1    4 1   
     3    1    5 1   
     4    1    6 1   
     5    2    3 2   
     6    2    7 1   
     7    7    8 1   
     8    7   15 1   
     9    8    9 1   
    10    8   11 1   
    11    8   16 1   
    12    9   10 2   
    13    9   19 1   
    14   11   12 1   
    15   11   17 1   
    16   11   18 1   
    17   12   13 1   
    18   12   14 1   
    19   19   20 1   
    20   19   28 1   
    21   20   21 1   
    22   20   23 1   
    23   20   29 1   
    24   21   22 2   
    25   21   41 1   
    26   23   24 1   
    27   23   30 1   
    28   23   31 1   
    29   24   25 1   
    30   24   32 1   
    31   24   33 1   
    32   25   26 1   
    33   25   34 1   
    34   25   35 1   
    35   26   27 1   
    36   26   36 1   
    37   26   37 1   
    38   27   38 1   
    39   27   39 1   
    40   27   40 1   
    41   41   42 1   
    42   41   49 1   
    43   42   43 1   
    44   42   45 1   
    45   42   50 1   
    46   43   44 2   
    47   43   53 1   
    48   45   46 1   
    49   45   51 1   
    50   45   52 1   
    51   46   47 1   
    52   46   48 1   
    53   53   54 1   
    54   53   57 1   
    55   54   55 1   
    56   54   58 1   
    57   54   59 1   
    58   55   56 2   
    59   55   60 1   
    60   60   61 1   
    61   60   68 1   
    62   61   62 1   
    63   61   64 1   
    64   61   69 1   
    65   62   63 2   
    66   62   72 1   
    67   64   65 1   
    68   64   70 1   
    69   64   71 1   
    70   65   66 1   
    71   65   67 1   
    72   72   73 1   
    73   72   76 1   
    74   73   74 1   
    75   73   77 1   
    76   73   78 1   
    77   74   75 2   
    78   74   79 1   
    79   79   80 1   
    80   79   86 1   
    81   80   81 1   
    82   80   83 1   
    83   80   87 1   
    84   81   82 2   
    85   81   93 1   
    86   83   84 1   
    87   83   85 1   
    88   83   88 1   
    89   84   90 1   
    90   84   91 1   
    91   84   92 1   
    92   85   89 1   
    93   93   94 1   
    94   93  101 1   
    95   94   95 1   
    96   94   97 1   
    97   94  102 1   
    98   95   96 2   
    99   95  112 1   
   100   97   98 1   
   101   97   99 1   
   102   97  103 1   
   103   98  100 1   
   104   98  104 1   
   105   98  105 1   
   106   99  106 1   
   107   99  107 1   
   108   99  108 1   
   109  100  109 1   
   110  100  110 1   
   111  100  111 1   
   112  112  113 1   
   113  112  119 1   
   114  113  114 1   
   115  113  116 1   
   116  113  120 1   
   117  114  115 2   
   118  114  126 1   
   119  116  117 1   
   120  116  118 1   
   121  116  121 1   
   122  117  123 1   
   123  117  124 1   
   124  117  125 1   
   125  118  122 1   
   126  126  127 1   
   127  126  133 1   
   128  127  128 1   
   129  127  130 1   
   130  127  134 1   
   131  128  129 2   
   132  128  140 1   
   133  130  131 1   
   134  130  132 1   
   135  130  135 1   
   136  131  137 1   
   137  131  138 1   
   138  131  139 1   
   139  132  136 1   
   140  140  141 1   
   141  140  149 1   
   142  141  142 1   
   143  141  144 1   
   144  141  150 1   
   145  142  143 2   
   146  142  162 1   
   147  144  145 1   
   148  144  151 1   
   149  144  152 1   
   150  145  146 1   
   151  145  153 1   
   152  145  154 1   
   153  146  147 1   
   154  146  155 1   
   155  146  156 1   
   156  147  148 1   
   157  147  157 1   
   158  147  158 1   
   159  148  159 1   
   160  148  160 1   
   161  148  161 1   
   162  162  163 1   
   163  162  171 1   
   164  163  164 1   
   165  163  166 1   
   166  163  172 1   
   167  164  165 2   
   168  164  177 1   
   169  166  167 1   
   170  166  173 1   
   171  166  174 1   
   172  167  168 1   
   173  167  175 1   
   174  167  176 1   
   175  168  169 1   
   176  168  170 1   
   177  177  178 1   
   178  177  182 1   
   179  178  179 1   
   180  178  180 1   
   181  178  181 1   
   182  184  185 1   
   183  184  186 1   
   184  187  188 1   
   185  187  189 1   
   186  190  191 1   
   187  190  192 1   
   188  193  194 1   
   189  193  195 1   
   190  196  197 1   
   191  196  198 1   
   192  199  200 1   
   193  199  201 1   
@<TRIPOS>SUBSTRUCTURE
     1 MOL         1 TEMP              0 ****  ****    0 ROOT
