@<TRIPOS>MOLECULE
MOL
  178   175     1     0     0
SMALL
resp


@<TRIPOS>ATOM
      1 C1          0.5180    6.4840   -1.5900 c3        1 MOL     -0.500693
      2 C2          1.9550    6.2190   -1.2620 c         1 MOL      0.744210
      3 O1          2.5130    6.8980   -0.4100 o         1 MOL     -0.592932
      4 H1         -0.1180    6.0080   -0.8440 hc        1 MOL      0.125254
      5 H2          0.3370    7.5590   -1.5870 hc        1 MOL      0.125254
      6 H3          0.2880    6.0780   -2.5750 hc        1 MOL      0.125254
      7 N1          2.6720    5.3480   -2.0910 n         1 MOL     -0.474650
      8 C3          4.1070    5.0730   -1.9780 c3        1 MOL     -0.001709
      9 C4          4.3540    4.1230   -0.7390 c         1 MOL      0.540308
     10 O2          3.7330    3.0660   -0.7370 o         1 MOL     -0.539980
     11 C5          4.6300    4.5110   -3.2710 c3        1 MOL     -0.414073
     12 C6          6.1390    4.2230   -3.1570 c         1 MOL      0.765146
     13 O3          6.9560    5.1390   -3.4530 o         1 MOL     -0.732000
     14 O4          6.6340    3.1700   -2.7550 o         1 MOL     -0.732000
     15 H4          2.1850    4.8780   -2.8390 hn        1 MOL      0.288420
     16 H5          4.6430    6.0170   -1.9110 h1        1 MOL      0.088981
     17 H6          4.4090    5.2310   -4.0610 hc        1 MOL      0.088461
     18 H7          4.1320    3.5720   -3.5080 hc        1 MOL      0.088461
     19 N2          5.0360    4.5650    0.2800 n         1 MOL     -0.380665
     20 C7          5.2090    3.7000    1.4850 c3        1 MOL      0.230471
     21 C8          3.9760    3.6220    2.4110 c         1 MOL      0.552311
     22 O5          3.0100    4.4160    2.2850 o         1 MOL     -0.550637
     23 C9          6.3850    4.2580    2.2330 c3        1 MOL     -0.408152
     24 H8          5.4200    5.4950    0.2290 hn        1 MOL      0.284319
     25 H9          5.4340    2.6920    1.1250 h1        1 MOL      0.102582
     26 H10         6.5540    3.7490    3.1910 hc        1 MOL      0.101545
     27 H11         7.2850    4.1140    1.6280 hc        1 MOL      0.101545
     28 H12         6.2270    5.3230    2.3990 hc        1 MOL      0.101545
     29 N3          3.8740    2.6650    3.3350 n         1 MOL     -0.451505
     30 C10         4.7280    1.3970    3.4080 c3        1 MOL      0.072851
     31 C11         4.6070    0.4810    2.1500 c         1 MOL      0.377331
     32 O6          3.6840    0.4660    1.3580 o         1 MOL     -0.481563
     33 C12         4.2570    0.7100    4.7410 c3        1 MOL     -0.277619
     34 C13         2.7460    0.8050    4.8930 c         1 MOL      0.753174
     35 O7          2.0370    0.0990    4.1540 o         1 MOL     -0.680829
     36 O8          2.2860    1.6820    5.6360 o         1 MOL     -0.680829
     37 H13         3.0620    2.7160    3.9450 hn        1 MOL      0.307279
     38 H14         5.7570    1.7190    3.5530 h1        1 MOL      0.078209
     39 H15         4.7590    1.2720    5.5230 hc        1 MOL      0.045212
     40 H16         4.5430   -0.3470    4.6830 hc        1 MOL      0.045212
     41 N4          5.7420   -0.2660    1.8630 n         1 MOL     -0.441562
     42 C14         6.0190   -1.2330    0.7500 c3        1 MOL      0.099212
     43 C15         7.3440   -0.9800    0.0900 c         1 MOL      0.545391
     44 O9          7.9610    0.0180    0.3420 o         1 MOL     -0.509334
     45 H17         6.5560   -0.0850    2.4250 hn        1 MOL      0.251808
     46 H18         5.2230   -1.1580    0.0100 h1        1 MOL      0.081578
     47 H19         5.9380   -2.2830    1.0460 h1        1 MOL      0.081578
     48 N5          7.8690   -1.8630   -0.7660 n         1 MOL     -0.571027
     49 C16         7.3500   -3.1490   -1.2080 c3        1 MOL      0.214324
     50 C17         6.0280   -3.2170   -2.0140 c         1 MOL      0.613696
     51 O10         5.6200   -4.3020   -2.3470 o         1 MOL     -0.528187
     52 C18         8.5490   -3.8490   -1.8470 c3        1 MOL     -0.588784
     53 C19         8.5640   -5.3680   -1.7050 c         1 MOL      0.760043
     54 N6          8.3250   -6.1750   -2.7380 n         1 MOL     -0.830132
     55 O11         8.5810   -5.9140   -0.6250 o         1 MOL     -0.549917
     56 H20         8.8590   -1.6990   -0.8520 hn        1 MOL      0.326582
     57 H21         7.1000   -3.7010   -0.3000 h1        1 MOL      0.033993
     58 H22         9.4280   -3.4390   -1.3470 hc        1 MOL      0.170679
     59 H23         8.4320   -3.6030   -2.9000 hc        1 MOL      0.170679
     60 H24         7.9500   -5.7210   -3.5650 hn        1 MOL      0.372083
     61 H25         8.1970   -7.1720   -2.7390 hn        1 MOL      0.372083
     62 N7          5.4560   -2.0810   -2.4200 n         1 MOL     -0.475699
     63 C20         4.2810   -2.0180   -3.2690 c3        1 MOL      0.035889
     64 C21         3.0430   -2.5400   -2.5420 c         1 MOL      0.455778
     65 O12         2.0290   -2.9020   -3.1290 o         1 MOL     -0.556730
     66 H26         5.6460   -1.1700   -2.0390 hn        1 MOL      0.306756
     67 H27         4.4200   -2.5920   -4.1900 h1        1 MOL      0.073362
     68 H28         4.0310   -1.0070   -3.6040 h1        1 MOL      0.073362
     69 N8          3.1550   -2.7110   -1.2630 n         1 MOL     -0.116723
     70 C22         2.1340   -3.5170   -0.4440 c3        1 MOL     -0.062804
     71 C23         0.8390   -2.7390   -0.2310 c         1 MOL      0.534609
     72 O13         0.7980   -1.5170   -0.2240 o         1 MOL     -0.590998
     73 C24         2.7000   -3.9110    0.8860 c3        1 MOL      0.413050
     74 C25         3.6680   -5.0650    0.8930 c3        1 MOL     -0.308591
     75 O14         3.3910   -2.7610    1.3510 oh        1 MOL     -0.764366
     76 H29         3.9640   -2.3150   -0.7970 hn        1 MOL      0.021253
     77 H30         1.9400   -4.4670   -0.9420 h1        1 MOL      0.085258
     78 H31         1.8740   -4.1910    1.5470 h1        1 MOL     -0.011268
     79 H32         3.8460   -2.8290    2.1980 ho        1 MOL      0.461074
     80 H33         3.3740   -5.7860    0.1200 hc        1 MOL      0.073376
     81 H34         4.6260   -4.6690    0.5740 hc        1 MOL      0.073376
     82 H35         3.6570   -5.6040    1.8460 hc        1 MOL      0.073376
     83 N9         -0.2400   -3.4110   -0.0800 n         1 MOL     -0.322134
     84 C26        -1.7080   -2.9400   -0.1910 c3        1 MOL      0.105706
     85 C27        -2.4120   -3.0190    1.1750 c         1 MOL      0.207718
     86 O15        -2.2040   -3.9330    1.9740 o         1 MOL     -0.514545
     87 C28        -2.5500   -3.7400   -1.2470 c3        1 MOL      0.079278
     88 C29        -3.8540   -2.9550   -1.4870 c3        1 MOL      0.185441
     89 C30        -1.7370   -3.8140   -2.5580 c3        1 MOL     -0.209932
     90 C31        -4.6660   -3.4520   -2.7060 c3        1 MOL     -0.370088
     91 H36        -0.1330   -4.4090    0.0010 hn        1 MOL      0.217574
     92 H37        -1.7180   -1.9310   -0.6010 h1        1 MOL      0.104590
     93 H38        -2.6970   -4.7560   -0.8910 hc        1 MOL     -0.000599
     94 H39        -3.4690   -1.9680   -1.7480 hc        1 MOL     -0.037952
     95 H40        -4.4800   -2.8690   -0.6070 hc        1 MOL     -0.037952
     96 H41        -2.1620   -4.4780   -3.3050 hc        1 MOL      0.048513
     97 H42        -1.7630   -2.8570   -3.0660 hc        1 MOL      0.048513
     98 H43        -0.6880   -4.0610   -2.4160 hc        1 MOL      0.048513
     99 H44        -4.8800   -4.5130   -2.7250 hc        1 MOL      0.077196
    100 H45        -5.6190   -2.9500   -2.5160 hc        1 MOL      0.077196
    101 H46        -4.1900   -3.0940   -3.6230 hc        1 MOL      0.077196
    102 N10        -3.0680   -1.9280    1.5610 n         1 MOL      0.012762
    103 C32        -3.8510   -1.8250    2.7640 c3        1 MOL     -0.008784
    104 C33        -5.3130   -1.6620    2.3760 c         1 MOL      0.480569
    105 O16        -6.1790   -1.9940    3.1290 o         1 MOL     -0.551250
    106 C34        -3.4300   -0.6400    3.7130 c3        1 MOL     -0.075007
    107 C35        -1.9500   -0.6740    3.8570 c         1 MOL      0.750214
    108 O17        -1.1930    0.1560    3.3280 o         1 MOL     -0.726397
    109 O18        -1.4970   -1.6250    4.5710 o         1 MOL     -0.726397
    110 H47        -2.9510   -1.1220    0.9670 hn        1 MOL      0.035474
    111 H48        -3.7100   -2.7680    3.3090 h1        1 MOL      0.082985
    112 H49        -3.9020   -0.8970    4.6640 hc        1 MOL      0.010730
    113 H50        -3.7960    0.3260    3.3830 hc        1 MOL      0.010730
    114 N11        -5.5390   -1.0780    1.1830 n         1 MOL     -0.296771
    115 C36        -6.8300   -0.7150    0.8400 c3        1 MOL      0.211367
    116 C37        -6.9080    0.6270    0.0270 c         1 MOL      0.385118
    117 O19        -7.4390    0.6330   -1.1250 o         1 MOL     -0.509924
    118 C38        -7.5550   -1.9120    0.1120 c3        1 MOL      0.014541
    119 C39        -9.0560   -2.0130    0.0700 ca        1 MOL      0.004868
    120 C40        -9.7650   -1.5050    1.1830 ca        1 MOL     -0.157669
    121 C41        -9.7470   -2.1130   -1.1580 ca        1 MOL     -0.157669
    122 C42       -11.1590   -1.2770    1.1370 ca        1 MOL     -0.053117
    123 C43       -11.1070   -1.8150   -1.1820 ca        1 MOL     -0.053117
    124 C44       -11.8730   -1.5380   -0.0430 ca        1 MOL     -0.193140
    125 H51        -4.7870   -0.6540    0.6590 hn        1 MOL      0.127078
    126 H52        -7.4710   -0.4560    1.6950 h1        1 MOL      0.006689
    127 H53        -7.2130   -2.7920    0.6480 hc        1 MOL      0.023690
    128 H54        -7.1970   -1.9940   -0.9050 hc        1 MOL      0.023690
    129 H55        -9.2420   -1.2740    2.0990 ha        1 MOL      0.108986
    130 H56        -9.1390   -2.4080   -2.0040 ha        1 MOL      0.108986
    131 H57       -11.6860   -1.0900    2.0700 ha        1 MOL      0.077647
    132 H58       -11.6030   -1.8490   -2.1450 ha        1 MOL      0.077647
    133 H59       -12.9480   -1.5060   -0.0920 ha        1 MOL      0.114212
    134 N12        -6.4380    1.7470    0.5640 n         1 MOL     -0.214916
    135 C45        -6.4820    3.0460   -0.1310 c3        1 MOL     -0.053673
    136 C46        -5.6930    3.1030   -1.4960 c         1 MOL      0.293951
    137 O20        -6.0310    3.9780   -2.3180 o         1 MOL     -0.494320
    138 C47        -5.8720    3.9610    0.9820 c3        1 MOL      0.017306
    139 C48        -6.2490    3.3010    2.2650 c3        1 MOL     -0.190837
    140 C49        -5.8080    1.8980    1.8840 c3        1 MOL      0.158678
    141 H60        -7.5100    3.3900   -0.2980 h1        1 MOL      0.109918
    142 H61        -4.7900    3.9830    0.8860 hc        1 MOL      0.033570
    143 H62        -6.2550    4.9790    0.9050 hc        1 MOL      0.033570
    144 H63        -5.6400    3.6040    3.1180 hc        1 MOL      0.058148
    145 H64        -7.3120    3.3350    2.4870 hc        1 MOL      0.058148
    146 H65        -4.7200    1.7630    1.8970 h1        1 MOL      0.034218
    147 H66        -6.2160    1.2840    2.6810 h1        1 MOL      0.034218
    148 N13        -4.7600    2.1740   -1.7630 n         1 MOL     -0.031674
    149 C50        -4.0630    2.0790   -3.0300 c3        1 MOL     -0.215629
    150 C51        -5.0060    1.6600   -4.1970 c         1 MOL      0.512415
    151 O21        -5.1370    2.3990   -5.1940 o         1 MOL     -0.550304
    152 C52        -2.8530    1.0170   -2.9250 c3        1 MOL     -0.012570
    153 C53        -1.7750    1.1290   -1.8340 c3        1 MOL      0.014756
    154 C54        -2.0980    0.5780   -0.4150 c         1 MOL      0.567100
    155 O22        -1.1490    0.3270    0.4000 o         1 MOL     -0.593473
    156 O23        -3.3090    0.4180   -0.1260 o         1 MOL     -0.593473
    157 H67        -4.5130    1.4900   -1.0600 hn        1 MOL      0.157253
    158 H68        -3.6470    3.0730   -3.2020 h1        1 MOL      0.111529
    159 H69        -2.4580    1.0080   -3.9510 hc        1 MOL      0.003905
    160 H70        -3.3670    0.0720   -2.8000 hc        1 MOL      0.003905
    161 H71        -1.4460    2.1700   -1.8100 hc        1 MOL      0.012650
    162 H72        -0.8840    0.6160   -2.1880 hc        1 MOL      0.012650
    163 N14        -5.6940    0.5240   -4.0390 n         1 MOL     -0.169598
    164 C55        -6.6720   -0.0200   -4.9470 c3        1 MOL     -0.187473
    165 H73        -7.5740   -0.2810   -4.3940 h1        1 MOL      0.081619
    166 H74        -6.9140    0.7220   -5.7080 h1        1 MOL      0.081619
    167 H75        -6.2680   -0.9120   -5.4240 h1        1 MOL      0.081619
    168 H76        -5.5350    0.0120   -3.1880 hn        1 MOL      0.212478
    169 Ca1         0.9500    0.0800    1.7400 Ca        1 MOL      1.774241
    170 O24         1.6680    1.3890   -0.5030 oh        1 MOL     -0.922271
    171 H77         2.2890    2.1050   -0.5980 ho        1 MOL      0.428448
    172 H78         1.8390    0.8140   -1.2540 ho        1 MOL      0.428448
    173 O25         0.8740    2.7380    2.1420 oh        1 MOL     -0.922271
    174 H79         0.0180    3.1630    2.1540 ho        1 MOL      0.428448
    175 H80         1.4950    3.4510    2.2570 ho        1 MOL      0.428448
    176 O26         0.5890   -2.2530    2.9290 oh        1 MOL     -0.922271
    177 H81         0.9990   -3.0880    3.1770 ho        1 MOL      0.428448
    178 H82        -0.2020   -2.2130    3.4590 ho        1 MOL      0.428448
@<TRIPOS>BOND
     1    1    2 1   
     2    1    4 1   
     3    1    5 1   
     4    1    6 1   
     5    2    3 2   
     6    2    7 1   
     7    7    8 1   
     8    7   15 1   
     9    8    9 1   
    10    8   11 1   
    11    8   16 1   
    12    9   10 2   
    13    9   19 1   
    14   11   12 1   
    15   11   17 1   
    16   11   18 1   
    17   12   13 1   
    18   12   14 1   
    19   19   20 1   
    20   19   24 1   
    21   20   21 1   
    22   20   23 1   
    23   20   25 1   
    24   21   22 2   
    25   21   29 1   
    26   23   26 1   
    27   23   27 1   
    28   23   28 1   
    29   29   30 1   
    30   29   37 1   
    31   30   31 1   
    32   30   33 1   
    33   30   38 1   
    34   31   32 2   
    35   31   41 1   
    36   33   34 1   
    37   33   39 1   
    38   33   40 1   
    39   34   35 1   
    40   34   36 1   
    41   41   42 1   
    42   41   45 1   
    43   42   43 1   
    44   42   46 1   
    45   42   47 1   
    46   43   44 2   
    47   43   48 1   
    48   48   49 1   
    49   48   56 1   
    50   49   50 1   
    51   49   52 1   
    52   49   57 1   
    53   50   51 2   
    54   50   62 1   
    55   52   53 1   
    56   52   58 1   
    57   52   59 1   
    58   53   54 1   
    59   53   55 2   
    60   54   60 1   
    61   54   61 1   
    62   62   63 1   
    63   62   66 1   
    64   63   64 1   
    65   63   67 1   
    66   63   68 1   
    67   64   65 2   
    68   64   69 1   
    69   69   70 1   
    70   69   76 1   
    71   70   71 1   
    72   70   73 1   
    73   70   77 1   
    74   71   72 2   
    75   71   83 1   
    76   73   74 1   
    77   73   75 1   
    78   73   78 1   
    79   74   80 1   
    80   74   81 1   
    81   74   82 1   
    82   75   79 1   
    83   83   84 1   
    84   83   91 1   
    85   84   85 1   
    86   84   87 1   
    87   84   92 1   
    88   85   86 2   
    89   85  102 1   
    90   87   88 1   
    91   87   89 1   
    92   87   93 1   
    93   88   90 1   
    94   88   94 1   
    95   88   95 1   
    96   89   96 1   
    97   89   97 1   
    98   89   98 1   
    99   90   99 1   
   100   90  100 1   
   101   90  101 1   
   102  102  103 1   
   103  102  110 1   
   104  103  104 1   
   105  103  106 1   
   106  103  111 1   
   107  104  105 2   
   108  104  114 1   
   109  106  107 1   
   110  106  112 1   
   111  106  113 1   
   112  107  108 1   
   113  107  109 1   
   114  114  115 1   
   115  114  125 1   
   116  115  116 1   
   117  115  118 1   
   118  115  126 1   
   119  116  117 2   
   120  116  134 1   
   121  118  119 1   
   122  118  127 1   
   123  118  128 1   
   124  119  120 ar  
   125  119  121 ar  
   126  120  122 ar  
   127  120  129 1   
   128  121  123 ar  
   129  121  130 1   
   130  122  124 ar  
   131  122  131 1   
   132  123  124 ar  
   133  123  132 1   
   134  124  133 1   
   135  134  135 1   
   136  134  140 1   
   137  135  136 1   
   138  135  138 1   
   139  135  141 1   
   140  136  137 2   
   141  136  148 1   
   142  138  139 1   
   143  138  142 1   
   144  138  143 1   
   145  139  140 1   
   146  139  144 1   
   147  139  145 1   
   148  140  146 1   
   149  140  147 1   
   150  148  149 1   
   151  148  157 1   
   152  149  150 1   
   153  149  152 1   
   154  149  158 1   
   155  150  151 2   
   156  150  163 1   
   157  152  153 1   
   158  152  159 1   
   159  152  160 1   
   160  153  154 1   
   161  153  161 1   
   162  153  162 1   
   163  154  155 1   
   164  154  156 1   
   165  163  164 1   
   166  163  168 1   
   167  164  165 1   
   168  164  166 1   
   169  164  167 1   
   170  170  171 1   
   171  170  172 1   
   172  173  174 1   
   173  173  175 1   
   174  176  177 1   
   175  176  178 1   
@<TRIPOS>SUBSTRUCTURE
     1 MOL         1 TEMP              0 ****  ****    0 ROOT
