@<TRIPOS>MOLECULE
MOL
  181   177     1     0     0
SMALL
resp


@<TRIPOS>ATOM
      1 C1          5.1270    6.6330   -3.6500 c3        1 MOL     -0.256140
      2 C2          5.0320    5.1020   -3.5930 c         1 MOL      0.594848
      3 O1          4.3340    4.4730   -4.3600 o         1 MOL     -0.573778
      4 H1          5.8670    6.9230   -4.3960 hc        1 MOL      0.067527
      5 H2          4.1560    7.0480   -3.9210 hc        1 MOL      0.067527
      6 H3          5.4270    7.0160   -2.6740 hc        1 MOL      0.067527
      7 N1          5.8360    4.4430   -2.7810 n         1 MOL     -0.378293
      8 C3          6.9910    4.8320   -1.9210 c3        1 MOL      0.145254
      9 C4          6.8050    4.4250   -0.4090 c         1 MOL      0.535921
     10 O2          6.0830    3.4060   -0.0900 o         1 MOL     -0.626068
     11 C5          8.2170    4.1220   -2.4070 c3        1 MOL     -0.199599
     12 C6          8.0720    2.6390   -2.6530 c         1 MOL      0.723832
     13 O3          8.9820    2.0120   -3.2440 o         1 MOL     -0.699296
     14 O4          7.0640    2.0300   -2.2860 o         1 MOL     -0.699296
     15 H4          5.6930    3.4410   -2.7560 hn        1 MOL      0.211734
     16 H5          7.1860    5.8960   -2.0290 h1        1 MOL      0.023349
     17 H6          9.0350    4.2870   -1.7030 hc        1 MOL      0.045356
     18 H7          8.4820    4.6440   -3.3280 hc        1 MOL      0.045356
     19 N2          7.2450    5.2840    0.5040 n         1 MOL     -0.546953
     20 C7          7.0370    5.1820    1.9500 c3        1 MOL      0.322489
     21 C8          7.7950    3.9750    2.6190 c         1 MOL      0.280225
     22 O5          8.2240    4.0740    3.7540 o         1 MOL     -0.518701
     23 C9          5.5720    5.1130    2.3440 c3        1 MOL     -0.270105
     24 H8          7.8430    6.0350    0.1950 hn        1 MOL      0.299063
     25 H9          7.4050    6.0770    2.4460 h1        1 MOL      0.014841
     26 H10         5.6460    5.2030    3.4270 hc        1 MOL      0.086241
     27 H11         5.0190    5.9580    1.9470 hc        1 MOL      0.086241
     28 H12         5.0210    4.2240    2.0250 hc        1 MOL      0.086241
     29 N3          7.8630    2.8630    1.9340 n         1 MOL     -0.068288
     30 C10         8.5380    1.5610    2.4280 c3        1 MOL      0.008148
     31 C11         8.7020    0.6360    1.2770 c         1 MOL      0.314070
     32 O6          8.1920    0.7730    0.1620 o         1 MOL     -0.365523
     33 C12         7.6600    0.9110    3.5620 c3        1 MOL     -0.036390
     34 C13         6.1800    0.6510    3.0910 c         1 MOL      0.639716
     35 O7          5.9500    0.4290    1.8520 o         1 MOL     -0.643688
     36 O8          5.2540    0.7250    3.9540 o         1 MOL     -0.643688
     37 H13         7.4900    2.8870    0.9950 hn        1 MOL      0.062509
     38 H14         9.5270    1.8010    2.8230 h1        1 MOL      0.061185
     39 H15         7.6800    1.5670    4.4320 hc        1 MOL      0.005124
     40 H16         8.0490   -0.0840    3.7780 hc        1 MOL      0.005124
     41 N4          9.5630   -0.4150    1.4620 n         1 MOL     -0.287231
     42 C14         9.7840   -1.5260    0.5100 c3        1 MOL     -0.535671
     43 C15         8.7390   -2.6000    0.4800 c         1 MOL      0.759741
     44 O9          8.9120   -3.5440   -0.2700 o         1 MOL     -0.599060
     45 H17         9.9840   -0.6310    2.3520 hn        1 MOL      0.279872
     46 H18        10.6590   -2.1210    0.7690 h1        1 MOL      0.228052
     47 H19         9.8030   -1.1310   -0.5130 h1        1 MOL      0.228052
     48 N5          7.6910   -2.5770    1.3370 n         1 MOL     -0.604414
     49 C16         6.6990   -3.7080    1.2860 c3        1 MOL      0.082059
     50 C17         5.5400   -3.3860    0.3030 c         1 MOL      0.561275
     51 O10         5.3070   -2.2020    0.0230 o         1 MOL     -0.636128
     52 C18         6.0980   -3.9050    2.7070 c3        1 MOL     -0.269512
     53 C19         7.1300   -4.4130    3.7310 c         1 MOL      0.750072
     54 N6          7.3210   -3.7630    4.8500 n         1 MOL     -0.819819
     55 O11         7.7140   -5.4400    3.6060 o         1 MOL     -0.581352
     56 H20         7.5070   -1.8610    2.0230 hn        1 MOL      0.334729
     57 H21         7.1880   -4.6140    0.9370 h1        1 MOL      0.089302
     58 H22         5.3350   -4.6790    2.6480 hc        1 MOL      0.085858
     59 H23         5.8250   -2.9200    3.0820 hc        1 MOL      0.085858
     60 H24         6.7910   -2.9680    5.1720 hn        1 MOL      0.365635
     61 H25         8.0880   -4.0910    5.4100 hn        1 MOL      0.365635
     62 N7          4.8350   -4.3660   -0.2240 n         1 MOL     -0.403184
     63 C20         3.5940   -4.1480   -0.9740 c3        1 MOL      0.260967
     64 C21         2.8080   -5.4610   -0.9620 c         1 MOL      0.508872
     65 O12         3.3650   -6.5230   -0.6340 o         1 MOL     -0.536461
     66 H26         5.0420   -5.3240   -0.0090 hn        1 MOL      0.253016
     67 H27         3.8160   -3.9450   -2.0280 h1        1 MOL     -0.015260
     68 H28         3.0070   -3.4220   -0.4250 h1        1 MOL     -0.015260
     69 N8          1.5210   -5.5210   -1.4160 n         1 MOL     -0.557626
     70 C22         0.7800   -4.2750   -1.8840 c3        1 MOL      0.114693
     71 C23        -0.4260   -3.9850   -0.9980 c         1 MOL      0.424456
     72 O13        -1.1110   -4.8380   -0.4680 o         1 MOL     -0.502582
     73 C24         0.3610   -4.4240   -3.3470 c3        1 MOL      0.518046
     74 C25         1.5920   -4.6390   -4.2550 c3        1 MOL     -0.361814
     75 O14        -0.4550   -5.5640   -3.5610 oh        1 MOL     -0.621508
     76 H29         1.1070   -6.4310   -1.2930 hn        1 MOL      0.356181
     77 H30         1.3860   -3.3760   -1.8540 h1        1 MOL     -0.034968
     78 H31        -0.1520   -3.5050   -3.6240 h1        1 MOL     -0.032266
     79 H32        -1.3690   -5.2730   -3.4570 ho        1 MOL      0.394346
     80 H33         2.2390   -3.8000   -4.0040 hc        1 MOL      0.082694
     81 H34         2.0580   -5.6300   -4.2180 hc        1 MOL      0.082694
     82 H35         1.2410   -4.4310   -5.2640 hc        1 MOL      0.082694
     83 N9         -0.7940   -2.6800   -1.1200 n         1 MOL     -0.363863
     84 C26        -2.0050   -2.1370   -0.4310 c3        1 MOL      0.044808
     85 C27        -3.0070   -1.5990   -1.5230 c         1 MOL      0.480031
     86 O15        -2.5420   -1.1640   -2.6400 o         1 MOL     -0.605155
     87 C28        -1.6060   -1.1070    0.6060 c3        1 MOL      0.084051
     88 C29        -1.3030    0.2600   -0.1060 c3        1 MOL      0.319395
     89 C30        -0.4960   -1.5900    1.6050 c3        1 MOL     -0.277044
     90 C31        -0.5300    1.3130    0.6820 c3        1 MOL     -0.416509
     91 H36        -0.3570   -2.1420   -1.8450 hn        1 MOL      0.229475
     92 H37        -2.4950   -2.9130    0.1690 h1        1 MOL      0.109067
     93 H38        -2.4720   -0.9340    1.2390 hc        1 MOL     -0.013983
     94 H39        -2.2190    0.7340   -0.4520 hc        1 MOL     -0.067368
     95 H40        -0.6420    0.1140   -0.9640 hc        1 MOL     -0.067368
     96 H41         0.4670   -1.6840    1.1090 hc        1 MOL      0.070048
     97 H42        -0.4270   -0.9420    2.4780 hc        1 MOL      0.070048
     98 H43        -0.7540   -2.5420    2.0700 hc        1 MOL      0.070048
     99 H44        -0.7170    2.2830    0.2330 hc        1 MOL      0.085572
    100 H45        -0.8770    1.3150    1.7150 hc        1 MOL      0.085572
    101 H46         0.5440    1.1300    0.5930 hc        1 MOL      0.085572
    102 N10        -4.3460   -1.4880   -1.3960 n         1 MOL     -0.454781
    103 C32        -5.2300   -2.0820   -0.3620 c3        1 MOL     -0.033191
    104 C33        -6.5190   -1.3310   -0.2310 c         1 MOL      0.643503
    105 O16        -6.9060   -0.5020   -1.0400 o         1 MOL     -0.543355
    106 C34        -5.5440   -3.5280   -0.8930 c3        1 MOL     -0.074563
    107 C35        -6.2110   -3.5410   -2.2450 c         1 MOL      0.666164
    108 O17        -5.4980   -3.4250   -3.2730 o         1 MOL     -0.702506
    109 O18        -7.4380   -3.5950   -2.2880 o         1 MOL     -0.702506
    110 H47        -4.8870   -1.1080   -2.1690 hn        1 MOL      0.370519
    111 H48        -4.6970   -2.1790    0.5820 h1        1 MOL      0.082659
    112 H49        -6.2460   -3.9730   -0.1910 hc        1 MOL     -0.011668
    113 H50        -4.6590   -4.1630   -0.8680 hc        1 MOL     -0.011668
    114 N11        -7.3140   -1.5200    0.8200 n         1 MOL     -0.848745
    115 C36        -8.6370   -0.8740    0.9540 c3        1 MOL      1.007321
    116 C37        -8.8070   -0.0970    2.2240 c         1 MOL      0.041406
    117 O19        -8.3940   -0.6730    3.2280 o         1 MOL     -0.487751
    118 C38        -9.6900   -1.9610    0.8760 c3        1 MOL     -0.332472
    119 C39       -11.0730   -1.5070    0.5820 ca        1 MOL      0.142627
    120 C40       -12.0360   -1.4880    1.5800 ca        1 MOL     -0.192478
    121 C41       -11.3450   -1.0580   -0.7510 ca        1 MOL     -0.192478
    122 C42       -13.2870   -0.9330    1.2830 ca        1 MOL     -0.139020
    123 C43       -12.6280   -0.5910   -1.0420 ca        1 MOL     -0.139020
    124 C44       -13.5870   -0.4760    0.0010 ca        1 MOL     -0.109684
    125 H51        -6.8460   -1.9350    1.6110 hn        1 MOL      0.367913
    126 H52        -8.7930   -0.1260    0.1750 h1        1 MOL     -0.137185
    127 H53        -9.6820   -2.5480    1.7960 hc        1 MOL      0.063084
    128 H54        -9.4960   -2.5840   -0.0040 hc        1 MOL      0.063084
    129 H55       -11.8150   -1.7590    2.6080 ha        1 MOL      0.150149
    130 H56       -10.5720   -1.0910   -1.4980 ha        1 MOL      0.150149
    131 H57       -14.0490   -0.8220    2.0500 ha        1 MOL      0.107055
    132 H58       -12.8770   -0.3110   -2.0520 ha        1 MOL      0.107055
    133 H59       -14.5820   -0.0710   -0.1390 ha        1 MOL      0.078504
    134 N12        -9.4830    1.0930    2.3240 n         1 MOL      0.097448
    135 C45       -10.1830    1.9130    1.2870 c3        1 MOL     -0.044415
    136 C46        -9.3880    2.5920    0.1750 c         1 MOL      0.576237
    137 O20        -9.8900    2.9050   -0.8530 o         1 MOL     -0.595762
    138 C47       -10.8880    2.9900    2.0800 c3        1 MOL     -0.233073
    139 C48       -11.0770    2.3650    3.4260 c3        1 MOL      0.021878
    140 C49        -9.8880    1.5130    3.6570 c3        1 MOL     -0.069349
    141 H60       -10.9430    1.2570    0.8610 h1        1 MOL      0.072618
    142 H61       -10.2330    3.8580    2.1330 hc        1 MOL      0.091992
    143 H62       -11.8410    3.2630    1.6250 hc        1 MOL      0.091992
    144 H63       -11.0890    3.1080    4.2260 hc        1 MOL     -0.006942
    145 H64       -11.9520    1.7520    3.6380 hc        1 MOL     -0.006942
    146 H65        -9.0890    2.0850    4.1410 h1        1 MOL      0.052442
    147 H66       -10.1370    0.6030    4.2010 h1        1 MOL      0.052442
    148 N13        -8.0890    2.6600    0.3310 n         1 MOL     -0.321315
    149 C50        -7.0300    3.2100   -0.5570 c3        1 MOL      0.218394
    150 C51        -7.4150    4.6420   -0.9730 c         1 MOL      0.378460
    151 O21        -7.3780    5.5400   -0.1320 o         1 MOL     -0.581708
    152 C52        -5.6430    3.2600    0.0960 c3        1 MOL      0.015217
    153 C53        -5.0020    1.8760    0.3650 c3        1 MOL     -0.047959
    154 C54        -5.4930    1.3060    1.6830 c         1 MOL      0.631197
    155 O22        -6.4410    1.8590    2.2960 o         1 MOL     -0.641924
    156 O23        -4.9780    0.3650    2.2650 o         1 MOL     -0.641924
    157 H67        -7.7070    2.3590    1.2160 hn        1 MOL      0.155842
    158 H68        -6.9220    2.5740   -1.4390 h1        1 MOL      0.040897
    159 H69        -5.7560    3.9590    0.9290 hc        1 MOL     -0.012160
    160 H70        -4.9970    3.7340   -0.6500 hc        1 MOL     -0.012160
    161 H71        -3.9090    1.9330    0.4220 hc        1 MOL     -0.007160
    162 H72        -5.1850    1.2160   -0.4780 hc        1 MOL     -0.007160
    163 N14        -7.8010    5.0530   -2.1560 n         1 MOL     -0.321575
    164 C55        -8.0620    4.2750   -3.3820 c3        1 MOL     -0.171064
    165 H73        -9.1090    3.9710   -3.4020 h1        1 MOL      0.082478
    166 H74        -7.8460    4.8890   -4.2570 h1        1 MOL      0.082478
    167 H75        -7.4270    3.3900   -3.3930 h1        1 MOL      0.082478
    168 H76        -8.0770    6.0220   -2.2100 hn        1 MOL      0.275041
    169 Ca1         5.6750    0.6160   -0.5790 Ca        1 MOL      1.694297
    170 O24         4.3770   -0.8020   -2.3070 oh        1 MOL     -0.794366
    171 H77         4.8580   -1.3640   -2.9150 ho        1 MOL      0.397673
    172 H78         3.4840   -0.7910   -2.6490 ho        1 MOL      0.397673
    173 O25         7.2240   -1.1300   -1.9420 oh        1 MOL     -0.794366
    174 H79         7.0490   -2.0460   -2.1280 ho        1 MOL      0.397673
    175 H80         8.0370   -0.9390   -2.4170 ho        1 MOL      0.397673
    176 O26         4.0270    2.0080   -2.1460 oh        1 MOL     -0.794366
    177 H81         3.3070    2.4600   -1.7240 ho        1 MOL      0.397673
    178 H82         4.2070    2.5120   -2.9370 ho        1 MOL      0.397673
    179 O27         3.3710    1.0360    0.5400 oh        1 MOL     -0.794366
    180 H83         2.5890    1.4760    0.2160 ho        1 MOL      0.397673
    181 H84         3.2330    0.9760    1.4860 ho        1 MOL      0.397673
@<TRIPOS>BOND
     1    1    2 1   
     2    1    4 1   
     3    1    5 1   
     4    1    6 1   
     5    2    3 2   
     6    2    7 1   
     7    7    8 1   
     8    7   15 1   
     9    8    9 1   
    10    8   11 1   
    11    8   16 1   
    12    9   10 2   
    13    9   19 1   
    14   11   12 1   
    15   11   17 1   
    16   11   18 1   
    17   12   13 1   
    18   12   14 1   
    19   19   20 1   
    20   19   24 1   
    21   20   21 1   
    22   20   23 1   
    23   20   25 1   
    24   21   22 2   
    25   21   29 1   
    26   23   26 1   
    27   23   27 1   
    28   23   28 1   
    29   29   30 1   
    30   29   37 1   
    31   30   31 1   
    32   30   33 1   
    33   30   38 1   
    34   31   32 2   
    35   31   41 1   
    36   33   34 1   
    37   33   39 1   
    38   33   40 1   
    39   34   35 1   
    40   34   36 1   
    41   41   42 1   
    42   41   45 1   
    43   42   43 1   
    44   42   46 1   
    45   42   47 1   
    46   43   44 2   
    47   43   48 1   
    48   48   49 1   
    49   48   56 1   
    50   49   50 1   
    51   49   52 1   
    52   49   57 1   
    53   50   51 2   
    54   50   62 1   
    55   52   53 1   
    56   52   58 1   
    57   52   59 1   
    58   53   54 1   
    59   53   55 2   
    60   54   60 1   
    61   54   61 1   
    62   62   63 1   
    63   62   66 1   
    64   63   64 1   
    65   63   67 1   
    66   63   68 1   
    67   64   65 2   
    68   64   69 1   
    69   69   70 1   
    70   69   76 1   
    71   70   71 1   
    72   70   73 1   
    73   70   77 1   
    74   71   72 2   
    75   71   83 1   
    76   73   74 1   
    77   73   75 1   
    78   73   78 1   
    79   74   80 1   
    80   74   81 1   
    81   74   82 1   
    82   75   79 1   
    83   83   84 1   
    84   83   91 1   
    85   84   85 1   
    86   84   87 1   
    87   84   92 1   
    88   85   86 2   
    89   85  102 1   
    90   87   88 1   
    91   87   89 1   
    92   87   93 1   
    93   88   90 1   
    94   88   94 1   
    95   88   95 1   
    96   89   96 1   
    97   89   97 1   
    98   89   98 1   
    99   90   99 1   
   100   90  100 1   
   101   90  101 1   
   102  102  103 1   
   103  102  110 1   
   104  103  104 1   
   105  103  106 1   
   106  103  111 1   
   107  104  105 2   
   108  104  114 1   
   109  106  107 1   
   110  106  112 1   
   111  106  113 1   
   112  107  108 1   
   113  107  109 1   
   114  114  115 1   
   115  114  125 1   
   116  115  116 1   
   117  115  118 1   
   118  115  126 1   
   119  116  117 2   
   120  116  134 1   
   121  118  119 1   
   122  118  127 1   
   123  118  128 1   
   124  119  120 ar  
   125  119  121 ar  
   126  120  122 ar  
   127  120  129 1   
   128  121  123 ar  
   129  121  130 1   
   130  122  124 ar  
   131  122  131 1   
   132  123  124 ar  
   133  123  132 1   
   134  124  133 1   
   135  134  135 1   
   136  134  140 1   
   137  135  136 1   
   138  135  138 1   
   139  135  141 1   
   140  136  137 2   
   141  136  148 1   
   142  138  139 1   
   143  138  142 1   
   144  138  143 1   
   145  139  140 1   
   146  139  144 1   
   147  139  145 1   
   148  140  146 1   
   149  140  147 1   
   150  148  149 1   
   151  148  157 1   
   152  149  150 1   
   153  149  152 1   
   154  149  158 1   
   155  150  151 2   
   156  150  163 1   
   157  152  153 1   
   158  152  159 1   
   159  152  160 1   
   160  153  154 1   
   161  153  161 1   
   162  153  162 1   
   163  154  155 1   
   164  154  156 1   
   165  163  164 1   
   166  163  168 1   
   167  164  165 1   
   168  164  166 1   
   169  164  167 1   
   170  170  171 1   
   171  170  172 1   
   172  173  174 1   
   173  173  175 1   
   174  176  177 1   
   175  176  178 1   
   176  179  180 1   
   177  179  181 1   
@<TRIPOS>SUBSTRUCTURE
     1 MOL         1 TEMP              0 ****  ****    0 ROOT
