@<TRIPOS>MOLECULE
MOL
  191   184     1     0     0
SMALL
resp


@<TRIPOS>ATOM
      1 C1         -6.9030   -1.1440    3.0150 c3        1 MOL     -0.426559
      2 C2         -6.9740   -1.4890    1.5400 c         1 MOL      0.511727
      3 O1         -6.1430   -1.0260    0.7990 o         1 MOL     -0.425445
      4 H1         -6.7780   -0.0680    3.1300 hc        1 MOL      0.107723
      5 H2         -7.8240   -1.4570    3.5060 hc        1 MOL      0.107723
      6 H3         -6.0560   -1.6590    3.4690 hc        1 MOL      0.107723
      7 N1         -8.0410   -2.1660    1.0450 n         1 MOL     -0.398312
      8 C3         -8.4430   -2.3770   -0.3280 c3        1 MOL      0.034387
      9 C4         -8.3220   -1.0390   -1.1820 c         1 MOL      0.469400
     10 O2         -7.8590   -1.0190   -2.2930 o         1 MOL     -0.412050
     11 C5         -7.5170   -3.4380   -1.0350 c3        1 MOL     -0.203196
     12 C6         -8.1220   -3.9160   -2.4000 c         1 MOL      0.631946
     13 O3         -7.2830   -4.4590   -3.1910 o         1 MOL     -0.634492
     14 O4         -9.3320   -3.6990   -2.6870 o         1 MOL     -0.634492
     15 H4         -8.7280   -2.4680    1.7270 hn        1 MOL      0.290106
     16 H5         -9.4720   -2.7350   -0.2520 h1        1 MOL      0.051459
     17 H6         -7.4150   -4.3000   -0.3730 hc        1 MOL      0.061149
     18 H7         -6.5210   -3.0140   -1.1930 hc        1 MOL      0.061149
     19 N2         -8.6760    0.0650   -0.5050 n         1 MOL     -0.431444
     20 C7         -8.7200    1.3960   -0.9860 c3        1 MOL      0.051479
     21 C8         -7.4180    2.1390   -0.7930 c         1 MOL      0.469413
     22 O5         -7.4040    3.3160   -1.1560 o         1 MOL     -0.550314
     23 C9         -9.8510    2.1450   -0.2940 c3        1 MOL      0.066594
     24 C10        -9.8680    2.0650    1.2550 c3        1 MOL      0.151857
     25 C11       -10.9150    3.0240    1.7860 c3        1 MOL     -0.113106
     26 C12       -11.2840    2.8530    3.3000 c3        1 MOL      0.045440
     27 N3        -10.1300    3.3200    4.1480 n4        1 MOL     -0.207936
     28 H8         -8.9810   -0.0550    0.4430 hn        1 MOL      0.193130
     29 H9         -8.9140    1.4060   -2.0560 h1        1 MOL      0.129541
     30 H10       -10.7820    1.7040   -0.6570 hc        1 MOL     -0.005117
     31 H11        -9.8510    3.1700   -0.6700 hc        1 MOL     -0.005117
     32 H12        -8.8780    2.3060    1.6240 hc        1 MOL     -0.045568
     33 H13       -10.0590    1.0610    1.6260 hc        1 MOL     -0.045568
     34 H14       -11.7700    2.9490    1.1210 hc        1 MOL      0.058947
     35 H15       -10.5340    4.0480    1.6510 hc        1 MOL      0.058947
     36 H16       -11.5680    1.8590    3.6380 hx        1 MOL      0.062018
     37 H17       -12.1020    3.4800    3.6420 hx        1 MOL      0.062018
     38 H18        -9.5320    2.5470    4.3800 hn        1 MOL      0.200855
     39 H19        -9.6200    4.0480    3.6580 hn        1 MOL      0.200855
     40 H20       -10.5370    3.6530    5.0120 hn        1 MOL      0.200855
     41 N4         -6.3110    1.4970   -0.3740 n         1 MOL     -0.339922
     42 C13        -4.9500    2.0560   -0.3410 c3        1 MOL     -0.108776
     43 C14        -4.3660    2.4190   -1.7630 c         1 MOL      0.661615
     44 O6         -4.5740    1.6130   -2.6990 o         1 MOL     -0.479310
     45 C15        -3.9760    1.1890    0.4370 c3        1 MOL      0.027801
     46 C16        -2.5540    1.7160    0.4280 c         1 MOL      0.235936
     47 O7         -2.1460    2.4690    1.3060 o         1 MOL     -0.551335
     48 O8         -1.7350    1.3790   -0.4130 o         1 MOL     -0.551335
     49 H21        -6.4200    0.5790    0.0180 hn        1 MOL      0.232594
     50 H22        -5.0040    2.9870    0.2140 h1        1 MOL      0.053857
     51 H23        -3.9580    0.1800    0.0270 hc        1 MOL      0.034757
     52 H24        -4.3780    1.1100    1.4520 hc        1 MOL      0.034757
     53 N5         -3.4700    3.3740   -1.9420 n         1 MOL     -0.485558
     54 C17        -2.9170    3.7570   -3.3110 c3        1 MOL     -0.190105
     55 C18        -2.1100    2.6860   -3.9450 c         1 MOL      0.481782
     56 O9         -1.8460    2.7860   -5.1910 o         1 MOL     -0.544645
     57 H25        -3.1570    3.9170   -1.1480 hn        1 MOL      0.313747
     58 H26        -2.2090    4.5670   -3.1490 h1        1 MOL      0.142766
     59 H27        -3.7870    3.9240   -3.9320 h1        1 MOL      0.142766
     60 N6         -1.5250    1.6990   -3.2040 n         1 MOL     -0.075996
     61 C19        -0.9620    0.3940   -3.8030 c3        1 MOL      0.092358
     62 C20        -1.5970   -0.8970   -3.3000 c         1 MOL      0.382701
     63 O10        -0.9460   -1.9860   -3.4450 o         1 MOL     -0.500191
     64 C21         0.5970    0.4290   -3.5690 c3        1 MOL     -0.417041
     65 C22         1.3880    1.5650   -4.1180 c         1 MOL      0.870469
     66 N7          2.0190    1.3650   -5.2240 n         1 MOL     -0.860915
     67 O11         1.4070    2.6540   -3.6070 o         1 MOL     -0.663677
     68 H28        -1.6770    1.7370   -2.2030 hn        1 MOL     -0.005547
     69 H29        -1.1850    0.2720   -4.8720 h1        1 MOL      0.093243
     70 H30         1.0860   -0.5140   -3.8200 hc        1 MOL      0.083732
     71 H31         0.6620    0.5800   -2.4950 hc        1 MOL      0.083732
     72 H32         1.9020    0.4540   -5.6660 hn        1 MOL      0.400057
     73 H33         2.5600    2.0480   -5.7220 hn        1 MOL      0.400057
     74 N8         -2.7930   -0.9040   -2.7290 n         1 MOL     -0.170151
     75 C23        -3.5310   -2.0510   -2.1400 c3        1 MOL     -0.148771
     76 C24        -2.9000   -2.5470   -0.8210 c         1 MOL      0.486754
     77 O12        -3.2740   -3.6110   -0.3870 o         1 MOL     -0.525915
     78 H34        -3.3000   -0.0300   -2.6430 hn        1 MOL      0.115980
     79 H35        -3.5790   -2.8550   -2.8820 h1        1 MOL      0.147789
     80 H36        -4.5420   -1.7710   -1.8310 h1        1 MOL      0.147789
     81 N9         -2.0360   -1.7590   -0.2270 n         1 MOL     -0.308439
     82 C25        -1.4150   -2.1060    1.0670 c3        1 MOL     -0.072115
     83 C26        -0.0340   -1.3860    1.1540 c         1 MOL      0.151577
     84 O13         0.0870   -0.1590    0.9490 o         1 MOL     -0.431744
     85 C27        -2.3670   -1.7010    2.2160 c3        1 MOL     -0.295939
     86 C28        -1.8080   -1.6350    3.5160 ca        1 MOL      0.058128
     87 C29        -1.4800   -2.8550    4.1370 ca        1 MOL     -0.061899
     88 C30        -1.6460   -0.4220    4.1650 ca        1 MOL     -0.061899
     89 C31        -1.1150   -2.8510    5.4930 ca        1 MOL     -0.398369
     90 C32        -1.3170   -0.4100    5.5700 ca        1 MOL     -0.398369
     91 C33        -1.0740   -1.6330    6.1750 ca        1 MOL      0.427344
     92 O14        -0.7170   -1.6920    7.4730 oh        1 MOL     -0.465060
     93 H37        -1.9340   -0.8310   -0.6010 hn        1 MOL      0.343403
     94 H38        -1.2560   -3.1770    1.0300 h1        1 MOL      0.121851
     95 H39        -3.2610   -2.3270    2.2820 hc        1 MOL      0.169754
     96 H40        -2.7020   -0.6980    1.9470 hc        1 MOL      0.169754
     97 H41        -1.4220   -3.7540    3.5540 ha        1 MOL      0.119437
     98 H42        -1.7880    0.4960    3.6190 ha        1 MOL      0.119437
     99 H43        -0.9490   -3.8340    5.8970 ha        1 MOL      0.186139
    100 H44        -1.2820    0.4790    6.1840 ha        1 MOL      0.186139
    101 H45        -0.7140   -0.8110    7.8610 ho        1 MOL      0.336991
    102 N10         0.9640   -2.1870    1.4460 n         1 MOL     -0.030163
    103 C34         2.3780   -1.7540    1.4730 c3        1 MOL     -0.281440
    104 C35         2.9570   -1.8900    0.0760 c         1 MOL      0.463414
    105 O15         3.7780   -1.0570   -0.3000 o         1 MOL     -0.507256
    106 C36         3.1960   -2.5350    2.5880 c3        1 MOL      0.160196
    107 C37         2.7570   -1.9820    3.9380 c3        1 MOL     -0.081824
    108 C38         4.6260   -2.1800    2.4010 c3        1 MOL     -0.412254
    109 C39         3.2180   -2.7550    5.1860 c3        1 MOL     -0.066585
    110 H46         0.6960   -3.1400    1.6260 hn        1 MOL      0.233278
    111 H47         2.3860   -0.6970    1.6970 h1        1 MOL      0.112616
    112 H48         3.0380   -3.6040    2.5550 hc        1 MOL      0.031127
    113 H49         1.6790   -2.1230    3.9540 hc        1 MOL      0.039284
    114 H50         3.0320   -0.9380    4.0720 hc        1 MOL      0.039284
    115 H51         4.9610   -2.6750    1.4820 hc        1 MOL      0.121226
    116 H52         4.8620   -1.1190    2.4000 hc        1 MOL      0.121226
    117 H53         5.2370   -2.5680    3.2110 hc        1 MOL      0.121226
    118 H54         4.2580   -2.5640    5.4340 hc        1 MOL      0.028399
    119 H55         2.6840   -2.4580    6.0920 hc        1 MOL      0.028399
    120 H56         3.0910   -3.8270    5.0480 hc        1 MOL      0.028399
    121 N11         2.6270   -2.8700   -0.7530 n         1 MOL     -0.020748
    122 C40         3.0670   -2.9700   -2.1740 c3        1 MOL     -0.274227
    123 C41         4.5920   -3.2630   -2.2160 c         1 MOL      0.444850
    124 O16         5.1710   -3.0630   -3.2890 o         1 MOL     -0.481178
    125 C42         2.2460   -4.1110   -2.9100 c3        1 MOL      0.261645
    126 O17         1.6720   -5.1110   -2.1080 oh        1 MOL     -0.583177
    127 H57         2.0700   -3.6240   -0.3760 hn        1 MOL      0.126308
    128 H58         2.8440   -2.0810   -2.7580 h1        1 MOL      0.142214
    129 H59         2.9310   -4.6650   -3.5540 h1        1 MOL      0.043405
    130 H60         1.4500   -3.7000   -3.5390 h1        1 MOL      0.043405
    131 H61         2.1170   -5.9440   -2.3140 ho        1 MOL      0.395599
    132 N12         5.2500   -3.7840   -1.1150 n         1 MOL     -0.368981
    133 C43         6.6380   -4.2020   -1.1160 c3        1 MOL      0.442475
    134 C44         7.6790   -3.0780   -1.3580 c         1 MOL      0.401893
    135 O18         8.7960   -3.4560   -1.7300 o         1 MOL     -0.515785
    136 C45         6.6980   -5.5510   -1.7090 c3        1 MOL     -0.444501
    137 H62         4.7320   -3.9900   -0.2760 hn        1 MOL      0.192367
    138 H63         6.7500   -4.3490   -0.0320 h1        1 MOL     -0.013894
    139 H64         7.7460   -5.8430   -1.6700 hc        1 MOL      0.111983
    140 H65         6.1000   -6.1850   -1.0430 hc        1 MOL      0.111983
    141 H66         6.3010   -5.5090   -2.7210 hc        1 MOL      0.111983
    142 N13         7.2930   -1.7910   -1.1560 n         1 MOL     -0.547066
    143 C46         8.1290   -0.6220   -1.5150 c3        1 MOL      0.426821
    144 C47         8.3650    0.3350   -0.2970 c         1 MOL      0.499463
    145 O19         7.6600    0.2580    0.6630 o         1 MOL     -0.532870
    146 C48         7.2590    0.1110   -2.5190 c3        1 MOL     -0.102619
    147 H67         6.4090   -1.5420   -0.7330 hn        1 MOL      0.204363
    148 H68         9.0860   -0.8000   -1.9970 h1        1 MOL     -0.012990
    149 H69         7.0710   -0.4750   -3.4180 hc        1 MOL      0.021452
    150 H70         6.3340    0.4370   -2.0470 hc        1 MOL      0.021452
    151 H71         7.8080    0.9950   -2.8450 hc        1 MOL      0.021452
    152 N14         9.4440    1.0940   -0.3500 n         1 MOL     -0.521498
    153 C49         9.9290    2.0360    0.7040 c3        1 MOL      0.156895
    154 C50        10.2780    1.3980    2.0890 c         1 MOL      0.280226
    155 O20        10.2310    2.0820    3.1210 o         1 MOL     -0.494112
    156 C51         8.9970    3.2840    0.9730 c3        1 MOL     -0.020274
    157 C52         8.7650    4.2000   -0.2520 c3        1 MOL     -0.078957
    158 C53        10.0340    4.9290   -0.6530 c         1 MOL      0.646913
    159 O21        10.8500    4.4270   -1.4600 o         1 MOL     -0.643592
    160 O22        10.3070    5.9610   -0.0290 o         1 MOL     -0.643592
    161 H72        10.0910    0.8730   -1.0890 hn        1 MOL      0.278992
    162 H73        10.8970    2.3740    0.3220 h1        1 MOL      0.081206
    163 H74         9.5070    3.9030    1.7160 hc        1 MOL      0.060137
    164 H75         8.0000    3.0120    1.3180 hc        1 MOL      0.060137
    165 H76         7.9510    4.8760    0.0100 hc        1 MOL     -0.044574
    166 H77         8.6140    3.4640   -1.0520 hc        1 MOL     -0.044574
    167 N15        10.5620    0.1120    2.1420 n         1 MOL     -0.170652
    168 C54        10.5910   -0.7180    3.3090 c3        1 MOL      0.019744
    169 H78        10.2470   -0.1450    4.1700 h1        1 MOL      0.034337
    170 H79         9.9380   -1.5770    3.1600 h1        1 MOL      0.034337
    171 H80        11.6110   -1.0620    3.4850 h1        1 MOL      0.034337
    172 H81        10.6180   -0.4090    1.2780 hn        1 MOL      0.170982
    173 Ca1         0.3540    2.3470    0.8040 Ca        1 MOL      1.733884
    174 O23         0.0340    2.5590    3.3290 oh        1 MOL     -0.806850
    175 H82         0.7560    2.4250    3.9400 ho        1 MOL      0.403623
    176 H83        -0.4840    3.2760    3.7050 ho        1 MOL      0.403623
    177 O24         0.2060    3.8570   -1.4530 oh        1 MOL     -0.806850
    178 H84         0.3890    4.7680   -1.6760 ho        1 MOL      0.403623
    179 H85         0.3780    3.3700   -2.2540 ho        1 MOL      0.403623
    180 O25         2.3280    4.2940    0.5620 oh        1 MOL     -0.806850
    181 H86         3.2210    4.1220    0.2690 ho        1 MOL      0.403623
    182 H87         2.1240    5.1670    0.2400 ho        1 MOL      0.403623
    183 O26         2.3540    1.3600   -0.6290 oh        1 MOL     -0.806850
    184 H88         2.9460    0.6480   -0.3920 ho        1 MOL      0.403623
    185 H89         2.8400    1.8950   -1.2590 ho        1 MOL      0.403623
    186 O27        -0.7130    4.9410    1.3000 oh        1 MOL     -0.806850
    187 H90        -1.5430    5.1180    0.8690 ho        1 MOL      0.403623
    188 H91        -0.1690    5.7080    1.0990 ho        1 MOL      0.403623
    189 O28         2.5480    1.9180    2.1940 oh        1 MOL     -0.806850
    190 H92         2.6650    1.8920    3.1400 ho        1 MOL      0.403623
    191 H93         3.4140    1.6960    1.8410 ho        1 MOL      0.403623
@<TRIPOS>BOND
     1    1    2 1   
     2    1    4 1   
     3    1    5 1   
     4    1    6 1   
     5    2    3 2   
     6    2    7 1   
     7    7    8 1   
     8    7   15 1   
     9    8    9 1   
    10    8   11 1   
    11    8   16 1   
    12    9   10 2   
    13    9   19 1   
    14   11   12 1   
    15   11   17 1   
    16   11   18 1   
    17   12   13 1   
    18   12   14 1   
    19   19   20 1   
    20   19   28 1   
    21   20   21 1   
    22   20   23 1   
    23   20   29 1   
    24   21   22 2   
    25   21   41 1   
    26   23   24 1   
    27   23   30 1   
    28   23   31 1   
    29   24   25 1   
    30   24   32 1   
    31   24   33 1   
    32   25   26 1   
    33   25   34 1   
    34   25   35 1   
    35   26   27 1   
    36   26   36 1   
    37   26   37 1   
    38   27   38 1   
    39   27   39 1   
    40   27   40 1   
    41   41   42 1   
    42   41   49 1   
    43   42   43 1   
    44   42   45 1   
    45   42   50 1   
    46   43   44 2   
    47   43   53 1   
    48   45   46 1   
    49   45   51 1   
    50   45   52 1   
    51   46   47 1   
    52   46   48 1   
    53   53   54 1   
    54   53   57 1   
    55   54   55 1   
    56   54   58 1   
    57   54   59 1   
    58   55   56 2   
    59   55   60 1   
    60   60   61 1   
    61   60   68 1   
    62   61   62 1   
    63   61   64 1   
    64   61   69 1   
    65   62   63 2   
    66   62   74 1   
    67   64   65 1   
    68   64   70 1   
    69   64   71 1   
    70   65   66 1   
    71   65   67 2   
    72   66   72 1   
    73   66   73 1   
    74   74   75 1   
    75   74   78 1   
    76   75   76 1   
    77   75   79 1   
    78   75   80 1   
    79   76   77 2   
    80   76   81 1   
    81   81   82 1   
    82   81   93 1   
    83   82   83 1   
    84   82   85 1   
    85   82   94 1   
    86   83   84 2   
    87   83  102 1   
    88   85   86 1   
    89   85   95 1   
    90   85   96 1   
    91   86   87 ar  
    92   86   88 ar  
    93   87   89 ar  
    94   87   97 1   
    95   88   90 ar  
    96   88   98 1   
    97   89   91 ar  
    98   89   99 1   
    99   90   91 ar  
   100   90  100 1   
   101   91   92 1   
   102   92  101 1   
   103  102  103 1   
   104  102  110 1   
   105  103  104 1   
   106  103  106 1   
   107  103  111 1   
   108  104  105 2   
   109  104  121 1   
   110  106  107 1   
   111  106  108 1   
   112  106  112 1   
   113  107  109 1   
   114  107  113 1   
   115  107  114 1   
   116  108  115 1   
   117  108  116 1   
   118  108  117 1   
   119  109  118 1   
   120  109  119 1   
   121  109  120 1   
   122  121  122 1   
   123  121  127 1   
   124  122  123 1   
   125  122  125 1   
   126  122  128 1   
   127  123  124 2   
   128  123  132 1   
   129  125  126 1   
   130  125  129 1   
   131  125  130 1   
   132  126  131 1   
   133  132  133 1   
   134  132  137 1   
   135  133  134 1   
   136  133  136 1   
   137  133  138 1   
   138  134  135 2   
   139  134  142 1   
   140  136  139 1   
   141  136  140 1   
   142  136  141 1   
   143  142  143 1   
   144  142  147 1   
   145  143  144 1   
   146  143  146 1   
   147  143  148 1   
   148  144  145 2   
   149  144  152 1   
   150  146  149 1   
   151  146  150 1   
   152  146  151 1   
   153  152  153 1   
   154  152  161 1   
   155  153  154 1   
   156  153  156 1   
   157  153  162 1   
   158  154  155 2   
   159  154  167 1   
   160  156  157 1   
   161  156  163 1   
   162  156  164 1   
   163  157  158 1   
   164  157  165 1   
   165  157  166 1   
   166  158  159 1   
   167  158  160 1   
   168  167  168 1   
   169  167  172 1   
   170  168  169 1   
   171  168  170 1   
   172  168  171 1   
   173  174  175 1   
   174  174  176 1   
   175  177  178 1   
   176  177  179 1   
   177  180  181 1   
   178  180  182 1   
   179  183  184 1   
   180  183  185 1   
   181  186  187 1   
   182  186  188 1   
   183  189  190 1   
   184  189  191 1   
@<TRIPOS>SUBSTRUCTURE
     1 MOL         1 TEMP              0 ****  ****    0 ROOT
