@<TRIPOS>MOLECULE
MOL
  178   175     1     0     0
SMALL
resp


@<TRIPOS>ATOM
      1 C1          2.1750   -0.7520    5.3440 c3        1 MOL     -0.220954
      2 C2          3.3090   -0.2760    4.3590 c         1 MOL      0.659294
      3 O1          3.1210    0.7330    3.6930 o         1 MOL     -0.552133
      4 H1          1.2310   -0.8260    4.8030 hc        1 MOL      0.047220
      5 H2          2.4360   -1.7270    5.7560 hc        1 MOL      0.047220
      6 H3          2.0720   -0.0300    6.1550 hc        1 MOL      0.047220
      7 N1          4.3600   -1.0560    4.2560 n         1 MOL     -0.576130
      8 C3          5.6110   -0.6860    3.6130 c3        1 MOL      0.313876
      9 C4          6.0000   -1.6070    2.4590 c         1 MOL      0.587864
     10 O2          6.8820   -1.3700    1.6580 o         1 MOL     -0.545908
     11 C5          6.6380   -0.5680    4.6540 c3        1 MOL     -0.188517
     12 C6          7.8200    0.3150    4.3380 c         1 MOL      0.725222
     13 O3          7.6960    1.1870    3.4720 o         1 MOL     -0.735977
     14 O4          8.8970    0.1630    4.9930 o         1 MOL     -0.735977
     15 H4          4.5910   -1.8280    4.8680 hn        1 MOL      0.276279
     16 H5          5.4300    0.2990    3.1700 h1        1 MOL      0.026003
     17 H6          6.9490   -1.5660    4.9450 hc        1 MOL     -0.013507
     18 H7          6.2260   -0.2050    5.6010 hc        1 MOL     -0.013507
     19 N2          5.3440   -2.7640    2.2890 n         1 MOL     -0.481443
     20 C7          5.3380   -3.6270    1.0830 c3        1 MOL      0.123853
     21 C8          4.9950   -2.9070   -0.2350 c         1 MOL      0.453390
     22 O5          3.8630   -2.4840   -0.4130 o         1 MOL     -0.670828
     23 C9          6.6580   -4.4710    1.0440 c3        1 MOL     -0.465146
     24 H8          4.4850   -2.8230    2.8120 hn        1 MOL      0.242388
     25 H9          4.5760   -4.3680    1.2810 h1        1 MOL      0.101634
     26 H10         7.0210   -4.6380    2.0570 hc        1 MOL      0.130741
     27 H11         6.5300   -5.3910    0.4830 hc        1 MOL      0.130741
     28 H12         7.5020   -4.0000    0.5350 hc        1 MOL      0.130741
     29 N3          5.9420   -2.7300   -1.1820 n         1 MOL     -0.198347
     30 C10         5.8170   -1.8170   -2.3360 c3        1 MOL     -0.005137
     31 C11         5.9740   -0.3060   -2.0380 c         1 MOL      0.537714
     32 O6          6.2820    0.4430   -2.9790 o         1 MOL     -0.559868
     33 C12         6.6810   -2.2470   -3.5870 c3        1 MOL     -0.245907
     34 C13         6.4650   -3.7330   -3.9980 c         1 MOL      0.673980
     35 O7          5.3120   -4.1950   -4.1720 o         1 MOL     -0.696602
     36 O8          7.4630   -4.4890   -4.0490 o         1 MOL     -0.696602
     37 H13         6.8650   -3.0400   -0.9220 hn        1 MOL      0.223005
     38 H14         4.7790   -1.8820   -2.6590 h1        1 MOL      0.095776
     39 H15         7.7440   -2.0840   -3.4300 hc        1 MOL      0.062541
     40 H16         6.4570   -1.6080   -4.4450 hc        1 MOL      0.062541
     41 N4          5.7810    0.2310   -0.8500 n         1 MOL     -0.371142
     42 C14         5.8980    1.6910   -0.5110 c3        1 MOL     -0.069479
     43 C15         5.0240    2.6650   -1.2350 c         1 MOL      0.624937
     44 O9          5.4320    3.7680   -1.4920 o         1 MOL     -0.557260
     45 H17         5.5520   -0.4450   -0.1370 hn        1 MOL      0.275709
     46 H18         6.9430    2.0100   -0.5060 h1        1 MOL      0.094913
     47 H19         5.6270    1.7530    0.5380 h1        1 MOL      0.094913
     48 N5          3.7930    2.1890   -1.4320 n         1 MOL     -0.378840
     49 C16         2.7500    2.8420   -2.3480 c3        1 MOL     -0.120563
     50 C17         2.3360    4.1620   -1.8060 c         1 MOL      0.533319
     51 O10         2.2130    4.3790   -0.5990 o         1 MOL     -0.501617
     52 C18         1.4850    1.8950   -2.4140 c3        1 MOL     -0.150471
     53 C19         1.6820    0.5250   -3.0310 c         1 MOL      0.715114
     54 N6          1.2400    0.2970   -4.2330 n         1 MOL     -0.736158
     55 O11         2.1430   -0.4280   -2.4110 o         1 MOL     -0.662083
     56 H20         3.5620    1.3500   -0.9170 hn        1 MOL      0.281934
     57 H21         3.0640    2.9640   -3.3870 h1        1 MOL      0.084060
     58 H22         0.7310    2.3900   -3.0260 hc        1 MOL      0.096780
     59 H23         1.1320    1.7770   -1.3890 hc        1 MOL      0.096780
     60 H24         0.7710    1.0000   -4.7830 hn        1 MOL      0.328614
     61 H25         1.2920   -0.6440   -4.6120 hn        1 MOL      0.328614
     62 N7          2.1050    5.1300   -2.7120 n         1 MOL     -0.337304
     63 C20         1.6220    6.4520   -2.4120 c3        1 MOL     -0.314986
     64 C21         0.1180    6.4910   -2.1830 c         1 MOL      0.593893
     65 O12        -0.6890    5.8670   -2.8610 o         1 MOL     -0.507783
     66 H26         2.1820    4.8480   -3.6800 hn        1 MOL      0.271558
     67 H27         1.8750    7.1160   -3.2330 h1        1 MOL      0.154689
     68 H28         2.1200    6.7540   -1.4820 h1        1 MOL      0.154689
     69 N8         -0.2390    7.3020   -1.1640 n         1 MOL     -0.410612
     70 C22        -1.6550    7.6330   -0.7930 c3        1 MOL     -0.282629
     71 C23        -2.4690    6.5670   -0.1190 c         1 MOL      0.466930
     72 O13        -3.6810    6.6580   -0.1300 o         1 MOL     -0.574400
     73 C24        -1.6500    9.0170   -0.0410 c3        1 MOL      0.446542
     74 C25        -0.9690    8.9520    1.2980 c3        1 MOL     -0.379263
     75 O14        -0.9810    9.9580   -0.8800 oh        1 MOL     -0.629984
     76 H29         0.4960    7.8580   -0.7530 hn        1 MOL      0.238770
     77 H30        -2.1820    7.8950   -1.7050 h1        1 MOL      0.174311
     78 H31        -2.6810    9.3570    0.0860 h1        1 MOL      0.049973
     79 H32        -0.0450    9.7340   -0.8770 ho        1 MOL      0.375097
     80 H33        -0.9990    9.9040    1.8310 hc        1 MOL      0.095283
     81 H34        -1.5550    8.2720    1.9050 hc        1 MOL      0.095283
     82 H35         0.0070    8.4830    1.1770 hc        1 MOL      0.095283
     83 N9         -1.8750    5.4990    0.4030 n         1 MOL      0.007373
     84 C26        -2.4460    4.2900    0.9730 c3        1 MOL     -0.120749
     85 C27        -2.0560    3.0570    0.2020 c         1 MOL      0.479432
     86 O15        -1.1240    3.1680   -0.5550 o         1 MOL     -0.467085
     87 C28        -2.1830    4.1980    2.5070 c3        1 MOL      0.109694
     88 C29        -0.6280    4.0460    2.8650 c3        1 MOL     -0.095365
     89 C30        -2.7280    5.4710    3.1860 c3        1 MOL     -0.303834
     90 C31        -0.5030    3.6600    4.2940 c3        1 MOL     -0.316591
     91 H36        -0.8720    5.5200    0.4970 hn        1 MOL      0.128967
     92 H37        -3.5280    4.3340    0.8580 h1        1 MOL      0.082800
     93 H38        -2.7120    3.2950    2.8100 hc        1 MOL      0.008121
     94 H39        -0.1580    5.0140    2.6860 hc        1 MOL      0.105815
     95 H40        -0.1820    3.2490    2.2710 hc        1 MOL      0.105815
     96 H41        -2.7710    5.4380    4.2730 hc        1 MOL      0.068735
     97 H42        -2.1910    6.3780    2.9130 hc        1 MOL      0.068735
     98 H43        -3.7720    5.5230    2.8660 hc        1 MOL      0.068735
     99 H44         0.5480    3.4060    4.4570 hc        1 MOL      0.089212
    100 H45        -0.8880    4.4580    4.9230 hc        1 MOL      0.089212
    101 H46        -1.1330    2.7960    4.5100 hc        1 MOL      0.089212
    102 N10        -2.7370    1.8940    0.4340 n         1 MOL     -0.547947
    103 C32        -2.4820    0.5880   -0.2360 c3        1 MOL      0.256547
    104 C33        -3.7260   -0.2690   -0.4660 c         1 MOL      0.360646
    105 O16        -3.6110   -1.4940   -0.6190 o         1 MOL     -0.407591
    106 C34        -1.2540    0.0350    0.5460 c3        1 MOL     -0.220186
    107 C35        -0.3340   -0.8880   -0.3150 c         1 MOL      0.422657
    108 O17         0.7230   -1.2520    0.1930 o         1 MOL     -0.621400
    109 O18        -0.7350   -1.4110   -1.3920 o         1 MOL     -0.621400
    110 H47        -3.4630    1.8570    1.1350 hn        1 MOL      0.259552
    111 H48        -2.1660    0.9200   -1.2220 h1        1 MOL      0.037107
    112 H49        -1.6310   -0.4830    1.4270 hc        1 MOL      0.121216
    113 H50        -0.5640    0.7840    0.9280 hc        1 MOL      0.121216
    114 N11        -4.8940    0.2850   -0.3580 n         1 MOL     -0.274397
    115 C36        -6.1320   -0.4910   -0.6170 c3        1 MOL      0.120885
    116 C37        -6.2740   -1.6420    0.4210 c         1 MOL      0.214187
    117 O19        -6.2760   -1.3620    1.6530 o         1 MOL     -0.477622
    118 C38        -7.3620    0.3960   -0.5510 c3        1 MOL     -0.174516
    119 C39        -8.6050   -0.2710   -1.1560 ca        1 MOL      0.109807
    120 C40        -8.6740   -0.3840   -2.5970 ca        1 MOL     -0.202939
    121 C41        -9.6370   -0.7650   -0.3040 ca        1 MOL     -0.202939
    122 C42        -9.7440   -1.0810   -3.1310 ca        1 MOL     -0.072612
    123 C43       -10.7830   -1.2510   -0.9040 ca        1 MOL     -0.072612
    124 C44       -10.8260   -1.4860   -2.2830 ca        1 MOL     -0.151138
    125 H51        -4.9490    1.2840   -0.4050 hn        1 MOL      0.214603
    126 H52        -6.0680   -0.8990   -1.6280 h1        1 MOL      0.002065
    127 H53        -7.1670    1.3040   -1.1360 hc        1 MOL      0.082040
    128 H54        -7.4890    0.8280    0.4390 hc        1 MOL      0.082040
    129 H55        -7.9070    0.0020   -3.2550 ha        1 MOL      0.147562
    130 H56        -9.5100   -0.7670    0.7670 ha        1 MOL      0.147562
    131 H57        -9.7880   -1.2730   -4.2010 ha        1 MOL      0.101379
    132 H58       -11.5990   -1.6940   -0.3590 ha        1 MOL      0.101379
    133 H59       -11.6240   -2.0590   -2.7560 ha        1 MOL      0.108101
    134 N12        -6.3520   -2.8810   -0.0600 n         1 MOL      0.134187
    135 C45        -6.6310   -4.0000    0.8270 c3        1 MOL     -0.066462
    136 C46        -5.5250   -4.3250    1.7930 c         1 MOL      0.342279
    137 O20        -5.7340   -5.0540    2.7780 o         1 MOL     -0.525086
    138 C47        -6.9450   -5.1860   -0.0750 c3        1 MOL     -0.023927
    139 C48        -6.2530   -4.8640   -1.3620 c3        1 MOL      0.028037
    140 C49        -6.2740   -3.3270   -1.4430 c3        1 MOL     -0.190812
    141 H60        -7.5420   -3.8260    1.3930 h1        1 MOL      0.081182
    142 H61        -6.5770   -6.1290    0.3400 hc        1 MOL      0.029762
    143 H62        -8.0070   -5.3180   -0.2910 hc        1 MOL      0.029762
    144 H63        -5.2200   -5.2180   -1.3420 hc        1 MOL      0.015415
    145 H64        -6.8090   -5.3590   -2.1680 hc        1 MOL      0.015415
    146 H65        -5.3490   -3.1070   -1.9580 h1        1 MOL      0.088451
    147 H66        -7.1440   -3.0190   -2.0280 h1        1 MOL      0.088451
    148 N13        -4.3110   -3.7730    1.5680 n         1 MOL     -0.070124
    149 C50        -3.2080   -3.9140    2.5530 c3        1 MOL     -0.173395
    150 C51        -3.1940   -2.8290    3.5510 c         1 MOL      0.384150
    151 O21        -2.3940   -2.9110    4.5320 o         1 MOL     -0.566204
    152 C52        -1.8230   -3.8410    1.7430 c3        1 MOL      0.218460
    153 C53        -1.5110   -4.9820    0.7590 c3        1 MOL     -0.394895
    154 C54        -0.3430   -4.6470   -0.1290 c         1 MOL      0.872024
    155 O22        -0.4850   -4.5970   -1.3760 o         1 MOL     -0.773748
    156 O23         0.7350   -4.3440    0.3560 o         1 MOL     -0.773748
    157 H67        -4.0860   -3.1510    0.8060 hn        1 MOL      0.165093
    158 H68        -3.2450   -4.8350    3.1510 h1        1 MOL      0.137240
    159 H69        -0.9990   -3.6910    2.4420 hc        1 MOL      0.009435
    160 H70        -1.9080   -2.9140    1.1750 hc        1 MOL      0.009435
    161 H71        -2.3990   -5.0210    0.1310 hc        1 MOL      0.059577
    162 H72        -1.3460   -5.9210    1.2830 hc        1 MOL      0.059577
    163 N14        -4.0540   -1.8470    3.4850 n         1 MOL     -0.072078
    164 C55        -4.2890   -0.6550    4.4000 c3        1 MOL     -0.260901
    165 H73        -5.3590   -0.5290    4.5650 h1        1 MOL      0.109558
    166 H74        -3.7930   -0.8260    5.3560 h1        1 MOL      0.109558
    167 H75        -3.8850    0.2440    3.9360 h1        1 MOL      0.109558
    168 H76        -4.5920   -1.8270    2.6200 hn        1 MOL      0.101834
    169 Ca1         1.6210   -2.8950   -1.6200 Ca        1 MOL      1.774976
    170 O24        -0.0970   -2.8650   -3.7320 oh        1 MOL     -0.816291
    171 H77        -0.8310   -2.3190   -4.0050 ho        1 MOL      0.387530
    172 H78         0.1650   -3.3190   -4.5330 ho        1 MOL      0.387530
    173 O25         2.8460   -2.9810   -4.0310 oh        1 MOL     -0.816291
    174 H79         3.6590   -3.4630   -4.1910 ho        1 MOL      0.387530
    175 H80         2.4980   -2.8040   -4.9110 ho        1 MOL      0.387530
    176 O26         2.5860   -5.4800   -1.9370 oh        1 MOL     -0.816291
    177 H81         2.1730   -6.3170   -1.7030 ho        1 MOL      0.387530
    178 H82         3.4790   -5.7270   -2.1880 ho        1 MOL      0.387530
@<TRIPOS>BOND
     1    1    2 1   
     2    1    4 1   
     3    1    5 1   
     4    1    6 1   
     5    2    3 2   
     6    2    7 1   
     7    7    8 1   
     8    7   15 1   
     9    8    9 1   
    10    8   11 1   
    11    8   16 1   
    12    9   10 2   
    13    9   19 1   
    14   11   12 1   
    15   11   17 1   
    16   11   18 1   
    17   12   13 1   
    18   12   14 1   
    19   19   20 1   
    20   19   24 1   
    21   20   21 1   
    22   20   23 1   
    23   20   25 1   
    24   21   22 2   
    25   21   29 1   
    26   23   26 1   
    27   23   27 1   
    28   23   28 1   
    29   29   30 1   
    30   29   37 1   
    31   30   31 1   
    32   30   33 1   
    33   30   38 1   
    34   31   32 2   
    35   31   41 1   
    36   33   34 1   
    37   33   39 1   
    38   33   40 1   
    39   34   35 1   
    40   34   36 1   
    41   41   42 1   
    42   41   45 1   
    43   42   43 1   
    44   42   46 1   
    45   42   47 1   
    46   43   44 2   
    47   43   48 1   
    48   48   49 1   
    49   48   56 1   
    50   49   50 1   
    51   49   52 1   
    52   49   57 1   
    53   50   51 2   
    54   50   62 1   
    55   52   53 1   
    56   52   58 1   
    57   52   59 1   
    58   53   54 1   
    59   53   55 2   
    60   54   60 1   
    61   54   61 1   
    62   62   63 1   
    63   62   66 1   
    64   63   64 1   
    65   63   67 1   
    66   63   68 1   
    67   64   65 2   
    68   64   69 1   
    69   69   70 1   
    70   69   76 1   
    71   70   71 1   
    72   70   73 1   
    73   70   77 1   
    74   71   72 2   
    75   71   83 1   
    76   73   74 1   
    77   73   75 1   
    78   73   78 1   
    79   74   80 1   
    80   74   81 1   
    81   74   82 1   
    82   75   79 1   
    83   83   84 1   
    84   83   91 1   
    85   84   85 1   
    86   84   87 1   
    87   84   92 1   
    88   85   86 2   
    89   85  102 1   
    90   87   88 1   
    91   87   89 1   
    92   87   93 1   
    93   88   90 1   
    94   88   94 1   
    95   88   95 1   
    96   89   96 1   
    97   89   97 1   
    98   89   98 1   
    99   90   99 1   
   100   90  100 1   
   101   90  101 1   
   102  102  103 1   
   103  102  110 1   
   104  103  104 1   
   105  103  106 1   
   106  103  111 1   
   107  104  105 2   
   108  104  114 1   
   109  106  107 1   
   110  106  112 1   
   111  106  113 1   
   112  107  108 1   
   113  107  109 1   
   114  114  115 1   
   115  114  125 1   
   116  115  116 1   
   117  115  118 1   
   118  115  126 1   
   119  116  117 2   
   120  116  134 1   
   121  118  119 1   
   122  118  127 1   
   123  118  128 1   
   124  119  120 ar  
   125  119  121 ar  
   126  120  122 ar  
   127  120  129 1   
   128  121  123 ar  
   129  121  130 1   
   130  122  124 ar  
   131  122  131 1   
   132  123  124 ar  
   133  123  132 1   
   134  124  133 1   
   135  134  135 1   
   136  134  140 1   
   137  135  136 1   
   138  135  138 1   
   139  135  141 1   
   140  136  137 2   
   141  136  148 1   
   142  138  139 1   
   143  138  142 1   
   144  138  143 1   
   145  139  140 1   
   146  139  144 1   
   147  139  145 1   
   148  140  146 1   
   149  140  147 1   
   150  148  149 1   
   151  148  157 1   
   152  149  150 1   
   153  149  152 1   
   154  149  158 1   
   155  150  151 2   
   156  150  163 1   
   157  152  153 1   
   158  152  159 1   
   159  152  160 1   
   160  153  154 1   
   161  153  161 1   
   162  153  162 1   
   163  154  155 1   
   164  154  156 1   
   165  163  164 1   
   166  163  168 1   
   167  164  165 1   
   168  164  166 1   
   169  164  167 1   
   170  170  171 1   
   171  170  172 1   
   172  173  174 1   
   173  173  175 1   
   174  176  177 1   
   175  176  178 1   
@<TRIPOS>SUBSTRUCTURE
     1 MOL         1 TEMP              0 ****  ****    0 ROOT
