@<TRIPOS>MOLECULE
MOL
  178   175     1     0     0
SMALL
resp


@<TRIPOS>ATOM
      1 C1          9.7790    7.1160   -2.1450 c3        1 MOL     -0.307349
      2 C2          8.6690    6.3880   -1.3130 c         1 MOL      0.640491
      3 O1          7.6460    6.9500   -0.8550 o         1 MOL     -0.587469
      4 H1          9.3990    7.3350   -3.1430 hc        1 MOL      0.083404
      5 H2         10.0540    8.0470   -1.6490 hc        1 MOL      0.083404
      6 H3         10.6560    6.4740   -2.2230 hc        1 MOL      0.083404
      7 N1          8.7310    5.0630   -1.0400 n         1 MOL     -0.680315
      8 C3          9.7570    4.0940   -1.3740 c3        1 MOL      0.321436
      9 C4         10.2460    3.2540   -0.1900 c         1 MOL      0.328439
     10 O2         11.0950    2.3930   -0.3950 o         1 MOL     -0.534349
     11 C5          9.2360    3.1360   -2.4180 c3        1 MOL     -0.419027
     12 C6          7.9510    2.4430   -2.1120 c         1 MOL      0.936055
     13 O3          7.4410    1.6990   -3.0010 o         1 MOL     -0.853648
     14 O4          7.3640    2.5260   -0.9910 o         1 MOL     -0.853648
     15 H4          7.9520    4.6320   -0.5490 hn        1 MOL      0.479245
     16 H5         10.6060    4.6130   -1.8220 h1        1 MOL      0.050772
     17 H6          9.9290    2.3440   -2.7020 hc        1 MOL      0.102078
     18 H7          9.1240    3.6370   -3.3790 hc        1 MOL      0.102078
     19 N2          9.7550    3.5240    1.0370 n         1 MOL     -0.463659
     20 C7         10.1860    2.7320    2.1410 c3        1 MOL      0.419789
     21 C8          9.5020    1.3440    2.3520 c         1 MOL      0.341468
     22 O5          9.8200    0.7800    3.3550 o         1 MOL     -0.547641
     23 C9         10.0790    3.5980    3.4190 c3        1 MOL     -0.245657
     24 H8          8.9450    4.1330    1.1020 hn        1 MOL      0.229853
     25 H9         11.2530    2.5010    2.0980 h1        1 MOL      0.012074
     26 H10        10.4870    3.0880    4.3020 hc        1 MOL      0.059021
     27 H11        10.6900    4.4980    3.3250 hc        1 MOL      0.059021
     28 H12         9.0420    3.8500    3.6130 hc        1 MOL      0.059021
     29 N3          8.5830    0.8280    1.5310 n         1 MOL     -0.432292
     30 C10         7.9340   -0.4570    1.6870 c3        1 MOL      0.537225
     31 C11         7.8440   -1.1770    0.3060 c         1 MOL      0.025812
     32 O6          7.9100   -0.4990   -0.7690 o         1 MOL     -0.403371
     33 C12         6.6090   -0.3780    2.3860 c3        1 MOL     -0.277711
     34 C13         5.5860    0.6240    1.8020 c         1 MOL      0.659464
     35 O7          4.7610    1.2150    2.5290 o         1 MOL     -0.649812
     36 O8          5.3080    0.7850    0.5890 o         1 MOL     -0.649812
     37 H13         8.3670    1.2800    0.6610 hn        1 MOL      0.350894
     38 H14         8.5070   -1.1560    2.2920 h1        1 MOL     -0.052902
     39 H15         6.8040   -0.1300    3.4230 hc        1 MOL      0.037491
     40 H16         6.3310   -1.4310    2.3820 hc        1 MOL      0.037491
     41 N4          7.7740   -2.5170    0.3310 n         1 MOL     -0.066598
     42 C14         7.7720   -3.3390   -0.8550 c3        1 MOL     -0.380707
     43 C15         6.4240   -3.4310   -1.5820 c         1 MOL      0.682410
     44 O9          5.8090   -2.4030   -1.7860 o         1 MOL     -0.623178
     45 H17         7.8460   -2.9660    1.2250 hn        1 MOL      0.227563
     46 H18         8.1720   -4.3270   -0.6400 h1        1 MOL      0.142084
     47 H19         8.5810   -3.0340   -1.5220 h1        1 MOL      0.142084
     48 N5          5.9390   -4.6210   -1.7670 n         1 MOL     -0.482955
     49 C16         4.5990   -4.7860   -2.3750 c3        1 MOL      0.025927
     50 C17         3.5320   -4.3800   -1.3670 c         1 MOL      0.297036
     51 O10         2.4400   -3.9250   -1.7480 o         1 MOL     -0.472041
     52 C18         4.4580   -6.1870   -2.9250 c3        1 MOL      0.046200
     53 C19         3.5020   -6.3190   -4.0310 c         1 MOL      0.634323
     54 N6          2.3070   -5.7940   -3.8990 n         1 MOL     -0.827011
     55 O11         3.7740   -6.7950   -5.0630 o         1 MOL     -0.580454
     56 H20         6.5240   -5.4100   -1.5150 hn        1 MOL      0.293755
     57 H21         4.5340   -4.1860   -3.2730 h1        1 MOL      0.146875
     58 H22         4.1890   -6.8850   -2.1290 hc        1 MOL     -0.003458
     59 H23         5.3900   -6.6330   -3.2640 hc        1 MOL     -0.003458
     60 H24         1.9570   -5.3270   -3.0730 hn        1 MOL      0.391209
     61 H25         1.7210   -6.0100   -4.6910 hn        1 MOL      0.391209
     62 N7          3.7340   -4.6530   -0.0890 n         1 MOL     -0.302427
     63 C20         2.8410   -4.4060    1.0690 c3        1 MOL     -0.121070
     64 C21         2.5850   -2.9230    1.4320 c         1 MOL      0.621750
     65 O12         3.3180   -2.0370    1.0890 o         1 MOL     -0.562089
     66 H26         4.7000   -4.8960    0.0760 hn        1 MOL      0.240822
     67 H27         2.9420   -5.0610    1.9340 h1        1 MOL      0.129308
     68 H28         1.8620   -4.8040    0.8000 h1        1 MOL      0.129308
     69 N8          1.6490   -2.5840    2.3060 n         1 MOL     -0.327415
     70 C22         0.5830   -3.4370    2.8310 c3        1 MOL     -0.394906
     71 C23        -0.9290   -2.8840    2.8120 c         1 MOL      0.650526
     72 O13        -1.9280   -3.5960    3.1150 o         1 MOL     -0.579833
     73 C24         0.8780   -3.8380    4.2720 c3        1 MOL      0.434596
     74 C25         2.2490   -4.4010    4.5090 c3        1 MOL     -0.410169
     75 O14         0.8710   -2.6680    5.0520 oh        1 MOL     -0.576817
     76 H29         1.6250   -1.6520    2.6900 hn        1 MOL      0.332515
     77 H30         0.5720   -4.3880    2.3100 h1        1 MOL      0.113532
     78 H31         0.0920   -4.4690    4.7060 h1        1 MOL      0.053529
     79 H32         1.7680   -2.3520    4.9570 ho        1 MOL      0.367049
     80 H33         3.0470   -3.7370    4.1650 hc        1 MOL      0.087118
     81 H34         2.5100   -4.5760    5.5520 hc        1 MOL      0.087118
     82 H35         2.3060   -5.3460    3.9640 hc        1 MOL      0.087118
     83 N9         -1.0350   -1.6020    2.4550 n         1 MOL     -0.240008
     84 C26        -2.2920   -0.8530    2.3830 c3        1 MOL     -0.116393
     85 C27        -2.6320   -0.5210    0.9510 c         1 MOL      0.404198
     86 O15        -1.8490    0.1210    0.2360 o         1 MOL     -0.597880
     87 C28        -2.2110    0.4030    3.1970 c3        1 MOL      0.452347
     88 C29        -1.1250    1.4850    2.8650 c3        1 MOL      0.016848
     89 C30        -2.1260    0.0300    4.6360 c3        1 MOL     -0.135918
     90 C31        -1.5510    2.8800    3.2570 c3        1 MOL     -0.196457
     91 H36        -0.1910   -1.1060    2.2030 hn        1 MOL      0.130246
     92 H37        -3.1320   -1.4280    2.7900 h1        1 MOL      0.119236
     93 H38        -3.1920    0.8460    3.0210 hc        1 MOL     -0.071527
     94 H39        -1.0010    1.6280    1.7940 hc        1 MOL     -0.020005
     95 H40        -0.1440    1.3110    3.3050 hc        1 MOL     -0.020005
     96 H41        -1.1840   -0.4920    4.8310 hc        1 MOL     -0.007834
     97 H42        -2.2320    0.8660    5.3440 hc        1 MOL     -0.007834
     98 H43        -2.9220   -0.6730    4.8490 hc        1 MOL     -0.007834
     99 H44        -0.7700    3.6390    3.2340 hc        1 MOL      0.045249
    100 H45        -2.4210    3.1740    2.6660 hc        1 MOL      0.045249
    101 H46        -1.9930    2.9150    4.2460 hc        1 MOL      0.045249
    102 N10        -3.8350   -0.6460    0.4830 n         1 MOL     -0.150668
    103 C32        -5.0420   -1.2860    1.0140 c3        1 MOL      0.124877
    104 C33        -6.3410   -0.7510    0.2850 c         1 MOL      0.438986
    105 O16        -6.2980   -0.0840   -0.7200 o         1 MOL     -0.470204
    106 C34        -5.0270   -2.8440    0.7810 c3        1 MOL     -0.294905
    107 C35        -4.6850   -3.2730   -0.7090 c         1 MOL      0.763165
    108 O17        -4.6830   -4.4910   -0.8950 o         1 MOL     -0.729475
    109 O18        -4.2680   -2.5060   -1.5990 o         1 MOL     -0.729475
    110 H47        -4.0310   -0.2930   -0.4490 hn        1 MOL      0.239312
    111 H48        -5.0970   -0.9690    2.0520 h1        1 MOL     -0.020539
    112 H49        -6.0110   -3.2140    1.0720 hc        1 MOL      0.038910
    113 H50        -4.2250   -3.1920    1.4240 hc        1 MOL      0.038910
    114 N11        -7.5410   -1.1050    0.7710 n         1 MOL     -0.472750
    115 C36        -8.8460   -0.6880    0.2080 c3        1 MOL      0.493459
    116 C37        -9.6480    0.4180    1.0070 c         1 MOL      0.152890
    117 O19        -9.7380    0.3040    2.2140 o         1 MOL     -0.468813
    118 C38        -9.6880   -1.9380   -0.0180 c3        1 MOL     -0.340509
    119 C39       -11.1310   -1.7020   -0.4980 ca        1 MOL      0.240673
    120 C40       -12.2260   -1.4980    0.3620 ca        1 MOL     -0.289763
    121 C41       -11.3030   -1.6140   -1.8760 ca        1 MOL     -0.289763
    122 C42       -13.4630   -1.1300   -0.1940 ca        1 MOL     -0.032250
    123 C43       -12.6070   -1.3030   -2.4010 ca        1 MOL     -0.032250
    124 C44       -13.7340   -1.1110   -1.5580 ca        1 MOL     -0.185015
    125 H51        -7.5430   -1.7090    1.5780 hn        1 MOL      0.279191
    126 H52        -8.5330   -0.2110   -0.7240 h1        1 MOL     -0.013010
    127 H53        -9.8300   -2.4850    0.9070 hc        1 MOL      0.090329
    128 H54        -9.1810   -2.5360   -0.7780 hc        1 MOL      0.090329
    129 H55       -12.0910   -1.5590    1.4280 ha        1 MOL      0.167575
    130 H56       -10.4550   -1.8750   -2.4820 ha        1 MOL      0.167575
    131 H57       -14.2500   -0.8370    0.4900 ha        1 MOL      0.086568
    132 H58       -12.7910   -1.3220   -3.4660 ha        1 MOL      0.086568
    133 H59       -14.7520   -0.9550   -1.9100 ha        1 MOL      0.115045
    134 N12       -10.2740    1.4910    0.4080 n         1 MOL     -0.093951
    135 C45       -10.2630    1.6850   -1.0190 c3        1 MOL      0.280614
    136 C46        -9.0000    2.1710   -1.7130 c         1 MOL      0.370924
    137 O20        -8.7380    1.9380   -2.8880 o         1 MOL     -0.535158
    138 C47       -11.2710    2.7490   -1.3720 c3        1 MOL      0.003470
    139 C48       -12.3120    2.5680   -0.2370 c3        1 MOL     -0.177619
    140 C49       -11.4640    2.1710    0.9200 c3        1 MOL      0.107404
    141 H60       -10.6230    0.7920   -1.5340 h1        1 MOL     -0.034395
    142 H61       -10.8050    3.7360   -1.2720 hc        1 MOL      0.018732
    143 H62       -11.6190    2.6230   -2.3970 hc        1 MOL      0.018732
    144 H63       -12.9030    3.4280    0.0890 hc        1 MOL      0.035253
    145 H64       -12.9100    1.7340   -0.6090 hc        1 MOL      0.035253
    146 H65       -11.1980    3.0840    1.4440 h1        1 MOL      0.023948
    147 H66       -12.0770    1.5510    1.5700 h1        1 MOL      0.023948
    148 N13        -8.1360    2.9280   -0.9660 n         1 MOL     -0.391732
    149 C50        -6.7410    3.3940   -1.3170 c3        1 MOL      0.326909
    150 C51        -6.9000    4.3610   -2.5470 c         1 MOL      0.368015
    151 O21        -7.3940    5.4950   -2.3540 o         1 MOL     -0.570271
    152 C52        -6.1630    4.1270   -0.0770 c3        1 MOL     -0.179627
    153 C53        -5.9330    3.2480    1.1280 c3        1 MOL     -0.072221
    154 C54        -5.0650    3.6430    2.3180 c         1 MOL      0.779272
    155 O22        -4.9830    2.9380    3.3340 o         1 MOL     -0.723018
    156 O23        -4.4850    4.7960    2.4500 o         1 MOL     -0.723018
    157 H67        -8.5080    3.2890   -0.1040 hn        1 MOL      0.226829
    158 H68        -6.1290    2.5130   -1.5030 h1        1 MOL      0.053749
    159 H69        -6.7350    5.0190    0.1900 hc        1 MOL      0.037877
    160 H70        -5.1970    4.4980   -0.4280 hc        1 MOL      0.037877
    161 H71        -5.5110    2.3200    0.7600 hc        1 MOL     -0.027973
    162 H72        -6.9000    2.9580    1.5570 hc        1 MOL     -0.027973
    163 N14        -6.4540    4.0410   -3.7670 n         1 MOL     -0.318289
    164 C55        -5.9910    2.7340   -4.3240 c3        1 MOL     -0.135498
    165 H73        -5.8400    2.8320   -5.3990 h1        1 MOL      0.080245
    166 H74        -5.0530    2.4480   -3.8500 h1        1 MOL      0.080245
    167 H75        -6.7440    1.9700   -4.1330 h1        1 MOL      0.080245
    168 H76        -6.4890    4.7720   -4.4610 hn        1 MOL      0.259740
    169 Ca1         5.5760    0.2310   -2.0720 Ca        1 MOL      1.794373
    170 O24         6.9450   -1.0990   -4.1300 oh        1 MOL     -0.895233
    171 H77         6.5250   -1.5390   -4.8720 ho        1 MOL      0.433290
    172 H78         7.6740   -0.6240   -4.5240 ho        1 MOL      0.433290
    173 O25         3.8300    2.2670   -1.7280 oh        1 MOL     -0.895233
    174 H79         3.7660    2.7180   -0.8840 ho        1 MOL      0.433290
    175 H80         2.9170    2.2160   -2.0460 ho        1 MOL      0.433290
    176 O26         3.2590   -0.6890   -1.1780 oh        1 MOL     -0.895233
    177 H81         2.3850   -0.3220   -1.3280 ho        1 MOL      0.433290
    178 H82         3.1590   -1.2370   -0.3980 ho        1 MOL      0.433290
@<TRIPOS>BOND
     1    1    2 1   
     2    1    4 1   
     3    1    5 1   
     4    1    6 1   
     5    2    3 2   
     6    2    7 1   
     7    7    8 1   
     8    7   15 1   
     9    8    9 1   
    10    8   11 1   
    11    8   16 1   
    12    9   10 2   
    13    9   19 1   
    14   11   12 1   
    15   11   17 1   
    16   11   18 1   
    17   12   13 1   
    18   12   14 1   
    19   19   20 1   
    20   19   24 1   
    21   20   21 1   
    22   20   23 1   
    23   20   25 1   
    24   21   22 2   
    25   21   29 1   
    26   23   26 1   
    27   23   27 1   
    28   23   28 1   
    29   29   30 1   
    30   29   37 1   
    31   30   31 1   
    32   30   33 1   
    33   30   38 1   
    34   31   32 2   
    35   31   41 1   
    36   33   34 1   
    37   33   39 1   
    38   33   40 1   
    39   34   35 1   
    40   34   36 1   
    41   41   42 1   
    42   41   45 1   
    43   42   43 1   
    44   42   46 1   
    45   42   47 1   
    46   43   44 2   
    47   43   48 1   
    48   48   49 1   
    49   48   56 1   
    50   49   50 1   
    51   49   52 1   
    52   49   57 1   
    53   50   51 2   
    54   50   62 1   
    55   52   53 1   
    56   52   58 1   
    57   52   59 1   
    58   53   54 1   
    59   53   55 2   
    60   54   60 1   
    61   54   61 1   
    62   62   63 1   
    63   62   66 1   
    64   63   64 1   
    65   63   67 1   
    66   63   68 1   
    67   64   65 2   
    68   64   69 1   
    69   69   70 1   
    70   69   76 1   
    71   70   71 1   
    72   70   73 1   
    73   70   77 1   
    74   71   72 2   
    75   71   83 1   
    76   73   74 1   
    77   73   75 1   
    78   73   78 1   
    79   74   80 1   
    80   74   81 1   
    81   74   82 1   
    82   75   79 1   
    83   83   84 1   
    84   83   91 1   
    85   84   85 1   
    86   84   87 1   
    87   84   92 1   
    88   85   86 2   
    89   85  102 1   
    90   87   88 1   
    91   87   89 1   
    92   87   93 1   
    93   88   90 1   
    94   88   94 1   
    95   88   95 1   
    96   89   96 1   
    97   89   97 1   
    98   89   98 1   
    99   90   99 1   
   100   90  100 1   
   101   90  101 1   
   102  102  103 1   
   103  102  110 1   
   104  103  104 1   
   105  103  106 1   
   106  103  111 1   
   107  104  105 2   
   108  104  114 1   
   109  106  107 1   
   110  106  112 1   
   111  106  113 1   
   112  107  108 1   
   113  107  109 1   
   114  114  115 1   
   115  114  125 1   
   116  115  116 1   
   117  115  118 1   
   118  115  126 1   
   119  116  117 2   
   120  116  134 1   
   121  118  119 1   
   122  118  127 1   
   123  118  128 1   
   124  119  120 ar  
   125  119  121 ar  
   126  120  122 ar  
   127  120  129 1   
   128  121  123 ar  
   129  121  130 1   
   130  122  124 ar  
   131  122  131 1   
   132  123  124 ar  
   133  123  132 1   
   134  124  133 1   
   135  134  135 1   
   136  134  140 1   
   137  135  136 1   
   138  135  138 1   
   139  135  141 1   
   140  136  137 2   
   141  136  148 1   
   142  138  139 1   
   143  138  142 1   
   144  138  143 1   
   145  139  140 1   
   146  139  144 1   
   147  139  145 1   
   148  140  146 1   
   149  140  147 1   
   150  148  149 1   
   151  148  157 1   
   152  149  150 1   
   153  149  152 1   
   154  149  158 1   
   155  150  151 2   
   156  150  163 1   
   157  152  153 1   
   158  152  159 1   
   159  152  160 1   
   160  153  154 1   
   161  153  161 1   
   162  153  162 1   
   163  154  155 1   
   164  154  156 1   
   165  163  164 1   
   166  163  168 1   
   167  164  165 1   
   168  164  166 1   
   169  164  167 1   
   170  170  171 1   
   171  170  172 1   
   172  173  174 1   
   173  173  175 1   
   174  176  177 1   
   175  176  178 1   
@<TRIPOS>SUBSTRUCTURE
     1 MOL         1 TEMP              0 ****  ****    0 ROOT
