@<TRIPOS>MOLECULE
MOL
  178   175     1     0     0
SMALL
resp


@<TRIPOS>ATOM
      1 C1          2.6790   -2.3460    4.7290 c3        1 MOL     -0.213640
      2 C2          3.6920   -2.0900    3.5840 c         1 MOL      0.572530
      3 O1          3.2010   -1.9810    2.4570 o         1 MOL     -0.532585
      4 H1          1.7090   -2.6060    4.3050 hc        1 MOL      0.042404
      5 H2          3.0350   -3.1680    5.3520 hc        1 MOL      0.042404
      6 H3          2.5800   -1.4470    5.3360 hc        1 MOL      0.042404
      7 N1          4.9770   -1.9890    3.8620 n         1 MOL     -0.432203
      8 C3          5.9160   -1.4020    2.9110 c3        1 MOL      0.156811
      9 C4          6.1010   -2.4150    1.6920 c         1 MOL      0.439920
     10 O2          6.3760   -1.9280    0.5510 o         1 MOL     -0.498963
     11 C5          7.2720   -1.4110    3.6790 c3        1 MOL     -0.150678
     12 C6          8.5040   -0.8790    2.9010 c         1 MOL      0.748918
     13 O3          8.3080    0.1070    2.2000 o         1 MOL     -0.732838
     14 O4          9.5390   -1.5080    3.0110 o         1 MOL     -0.732838
     15 H4          5.2960   -2.1470    4.8080 hn        1 MOL      0.247349
     16 H5          5.6040   -0.3930    2.6440 h1        1 MOL      0.058732
     17 H6          7.4660   -2.4190    4.0280 hc        1 MOL     -0.030370
     18 H7          7.0800   -0.7380    4.5150 hc        1 MOL     -0.030370
     19 N2          5.9800   -3.6790    1.9370 n         1 MOL     -0.359717
     20 C7          6.0820   -4.8180    0.9640 c3        1 MOL      0.423457
     21 C8          5.4440   -4.6000   -0.4280 c         1 MOL      0.227595
     22 O5          6.0890   -4.8570   -1.4260 o         1 MOL     -0.491226
     23 C9          7.5500   -5.4050    0.9780 c3        1 MOL     -0.361332
     24 H8          5.8980   -3.9310    2.9120 hn        1 MOL      0.204019
     25 H9          5.4010   -5.5640    1.3830 h1        1 MOL     -0.059951
     26 H10         8.1070   -4.7980    0.2650 hc        1 MOL      0.090470
     27 H11         8.0060   -5.4300    1.9680 hc        1 MOL      0.090470
     28 H12         7.6150   -6.4200    0.5830 hc        1 MOL      0.090470
     29 N3          4.2110   -4.1430   -0.4600 n         1 MOL     -0.198939
     30 C10         3.3810   -3.7870   -1.6870 c3        1 MOL      0.093172
     31 C11         4.0250   -2.7020   -2.5880 c         1 MOL      0.288660
     32 O6          4.0070   -2.8060   -3.8250 o         1 MOL     -0.466661
     33 C12         2.8000   -5.0520   -2.3610 c3        1 MOL     -0.212225
     34 C13         1.7430   -4.8470   -3.4440 c         1 MOL      0.593876
     35 O7          1.7740   -5.4260   -4.5570 o         1 MOL     -0.681230
     36 O8          0.7340   -4.1290   -3.1280 o         1 MOL     -0.681230
     37 H13         3.7330   -4.1190    0.4370 hn        1 MOL      0.247828
     38 H14         2.5270   -3.2890   -1.2450 h1        1 MOL      0.000433
     39 H15         2.4040   -5.6830   -1.5610 hc        1 MOL      0.071808
     40 H16         3.5950   -5.6600   -2.7780 hc        1 MOL      0.071808
     41 N4          4.7820   -1.8120   -1.9830 n         1 MOL      0.177701
     42 C14         5.5960   -0.8190   -2.7000 c3        1 MOL     -0.312776
     43 C15         4.7900    0.3600   -3.2900 c         1 MOL      0.591501
     44 O9          5.2330    0.9510   -4.2840 o         1 MOL     -0.576596
     45 H17         4.7760   -1.8470   -0.9750 hn        1 MOL      0.031831
     46 H18         6.1510   -1.2970   -3.5100 h1        1 MOL      0.130862
     47 H19         6.2810   -0.3610   -1.9750 h1        1 MOL      0.130862
     48 N5          3.5430    0.5710   -2.9670 n         1 MOL     -0.292133
     49 C16         2.6810    1.6890   -3.3180 c3        1 MOL     -0.035113
     50 C17         3.3540    3.0100   -2.7040 c         1 MOL      0.532430
     51 O10         4.1130    2.8470   -1.7840 o         1 MOL     -0.453098
     52 C18         1.3540    1.3760   -2.6210 c3        1 MOL     -0.341796
     53 C19         0.6360    0.1920   -3.2200 c         1 MOL      0.745893
     54 N6          0.0860    0.3110   -4.3880 n         1 MOL     -0.807953
     55 O11         0.4930   -0.9140   -2.6970 o         1 MOL     -0.603085
     56 H20         3.1930    0.0650   -2.1700 hn        1 MOL      0.193184
     57 H21         2.5410    1.7830   -4.3940 h1        1 MOL      0.049552
     58 H22         0.6430    2.2100   -2.6060 hc        1 MOL      0.157544
     59 H23         1.5340    1.1400   -1.5710 hc        1 MOL      0.157544
     60 H24         0.3120    1.1190   -4.9590 hn        1 MOL      0.360420
     61 H25        -0.1740   -0.4810   -4.9670 hn        1 MOL      0.360420
     62 N7          2.9440    4.2510   -3.1730 n         1 MOL     -0.486565
     63 C20         3.3690    5.5430   -2.5990 c3        1 MOL      0.049020
     64 C21         2.2320    6.1730   -1.8090 c         1 MOL      0.484695
     65 O12         1.0920    5.8510   -2.1860 o         1 MOL     -0.504327
     66 H26         2.2720    4.3360   -3.9280 hn        1 MOL      0.284082
     67 H27         3.7930    6.2170   -3.3460 h1        1 MOL      0.057941
     68 H28         4.1480    5.4080   -1.8480 h1        1 MOL      0.057941
     69 N8          2.4160    7.0370   -0.8510 n         1 MOL     -0.345797
     70 C22         1.4030    8.0220   -0.5080 c3        1 MOL     -0.203632
     71 C23         0.1320    7.5220    0.2530 c         1 MOL      0.457584
     72 O13        -0.9440    8.0900    0.0550 o         1 MOL     -0.537714
     73 C24         1.9140    9.3290    0.1530 c3        1 MOL      0.467366
     74 C25         2.4680    9.0450    1.5400 c3        1 MOL     -0.294632
     75 O14         3.0220    9.8360   -0.6440 oh        1 MOL     -0.663537
     76 H29         3.3890    7.2760   -0.7050 hn        1 MOL      0.231541
     77 H30         1.1130    8.3630   -1.4960 h1        1 MOL      0.133425
     78 H31         1.0820   10.0340    0.1990 h1        1 MOL      0.034836
     79 H32         3.8410    9.4220   -0.3410 ho        1 MOL      0.391197
     80 H33         2.7720    9.9950    1.9690 hc        1 MOL      0.062238
     81 H34         1.6660    8.5570    2.0990 hc        1 MOL      0.062238
     82 H35         3.2970    8.3440    1.4860 hc        1 MOL      0.062238
     83 N9          0.2990    6.3720    0.9690 n         1 MOL     -0.161526
     84 C26        -0.6890    5.4350    1.4560 c3        1 MOL      0.008181
     85 C27        -0.5900    4.1980    0.5480 c         1 MOL      0.549040
     86 O15         0.4040    3.9290   -0.1450 o         1 MOL     -0.429996
     87 C28        -0.5440    5.1160    2.9450 c3        1 MOL      0.041030
     88 C29         0.8800    4.6890    3.3490 c3        1 MOL     -0.003171
     89 C30        -1.1980    6.2030    3.8060 c3        1 MOL     -0.364581
     90 C31         1.0030    3.9760    4.6670 c3        1 MOL     -0.168159
     91 H36         1.2160    5.9350    0.9030 hn        1 MOL      0.117186
     92 H37        -1.6970    5.8220    1.3880 h1        1 MOL      0.075762
     93 H38        -1.2490    4.2890    3.0320 hc        1 MOL      0.041752
     94 H39         1.6020    5.5080    3.3660 hc        1 MOL      0.051491
     95 H40         1.2280    3.9990    2.5830 hc        1 MOL      0.051491
     96 H41        -1.0020    6.2030    4.8740 hc        1 MOL      0.086183
     97 H42        -0.7630    7.1430    3.4690 hc        1 MOL      0.086183
     98 H43        -2.2340    6.3630    3.4870 hc        1 MOL      0.086183
     99 H44         2.0340    3.6880    4.8680 hc        1 MOL      0.049298
    100 H45         0.7590    4.6610    5.4820 hc        1 MOL      0.049298
    101 H46         0.2320    3.2060    4.6430 hc        1 MOL      0.049298
    102 N10        -1.5740    3.3750    0.6320 n         1 MOL     -0.653746
    103 C32        -1.6030    1.9680    0.0740 c3        1 MOL      0.343231
    104 C33        -2.8590    1.6110   -0.7070 c         1 MOL      0.671688
    105 O16        -2.7960    1.5540   -1.9460 o         1 MOL     -0.567697
    106 C34        -1.3500    0.8860    1.1150 c3        1 MOL     -0.578273
    107 C35        -1.3610   -0.4890    0.4370 c         1 MOL      0.853080
    108 O17        -2.4540   -1.1220    0.2270 o         1 MOL     -0.717431
    109 O18        -0.3560   -0.9410   -0.1390 o         1 MOL     -0.717431
    110 H47        -2.3820    3.6940    1.1460 hn        1 MOL      0.295864
    111 H48        -0.7750    1.8910   -0.6380 h1        1 MOL      0.017404
    112 H49        -2.1290    1.0650    1.8590 hc        1 MOL      0.160650
    113 H50        -0.3630    1.1220    1.5300 hc        1 MOL      0.160650
    114 N11        -3.9820    1.4140    0.0360 n         1 MOL     -0.815827
    115 C36        -5.1360    0.6590   -0.3810 c3        1 MOL      0.733554
    116 C37        -5.5480   -0.4190    0.6250 c         1 MOL      0.021404
    117 O19        -5.5050   -0.0880    1.8170 o         1 MOL     -0.444630
    118 C38        -6.2640    1.7370   -0.6200 c3        1 MOL     -0.267173
    119 C39        -7.6710    1.3850   -1.1450 ca        1 MOL      0.159912
    120 C40        -7.7990    1.3110   -2.5560 ca        1 MOL     -0.215771
    121 C41        -8.6150    0.8410   -0.2550 ca        1 MOL     -0.215771
    122 C42        -8.9620    0.7170   -3.0320 ca        1 MOL     -0.063793
    123 C43        -9.8050    0.3780   -0.8180 ca        1 MOL     -0.063793
    124 C44       -10.0490    0.3420   -2.1910 ca        1 MOL     -0.167534
    125 H51        -3.9720    1.4840    1.0450 hn        1 MOL      0.381125
    126 H52        -4.8430    0.1360   -1.3000 h1        1 MOL     -0.172314
    127 H53        -5.9630    2.5370   -1.3040 hc        1 MOL      0.068281
    128 H54        -6.3940    2.0930    0.3970 hc        1 MOL      0.068281
    129 H55        -7.0290    1.6080   -3.2570 ha        1 MOL      0.145347
    130 H56        -8.4480    0.8220    0.8170 ha        1 MOL      0.145347
    131 H57        -9.1060    0.5820   -4.0950 ha        1 MOL      0.090890
    132 H58       -10.5560   -0.0710   -0.1730 ha        1 MOL      0.090890
    133 H59       -11.0060   -0.0360   -2.5140 ha        1 MOL      0.124078
    134 N12        -6.1410   -1.5980    0.2770 n         1 MOL      0.286897
    135 C45        -6.7740   -2.5230    1.1450 c3        1 MOL      0.023311
    136 C46        -5.8300   -2.9450    2.3810 c         1 MOL      0.223450
    137 O20        -6.3640   -3.2780    3.4790 o         1 MOL     -0.501301
    138 C47        -7.1540   -3.7420    0.3300 c3        1 MOL      0.037499
    139 C48        -7.4220   -3.0420   -1.0060 c3        1 MOL     -0.172404
    140 C49        -6.3010   -2.0050   -1.0940 c3        1 MOL     -0.172249
    141 H60        -7.6460   -2.0670    1.5890 h1        1 MOL      0.041356
    142 H61        -6.3310   -4.4380    0.1760 hc        1 MOL      0.034749
    143 H62        -8.0040   -4.2840    0.7250 hc        1 MOL      0.034749
    144 H63        -7.2310   -3.8240   -1.7470 hc        1 MOL      0.047284
    145 H64        -8.3860   -2.5370   -1.0560 hc        1 MOL      0.047284
    146 H65        -5.4260   -2.5230   -1.4840 h1        1 MOL      0.067090
    147 H66        -6.6560   -1.1890   -1.7300 h1        1 MOL      0.067090
    148 N13        -4.5210   -2.8430    2.1800 n         1 MOL     -0.041361
    149 C50        -3.6570   -3.1230    3.3670 c3        1 MOL     -0.235035
    150 C51        -3.4470   -2.0710    4.4470 c         1 MOL      0.503195
    151 O21        -2.9720   -2.3670    5.5050 o         1 MOL     -0.536179
    152 C52        -2.2200   -3.4500    2.8200 c3        1 MOL      0.003345
    153 C53        -2.1660   -4.6510    1.8530 c3        1 MOL     -0.291109
    154 C54        -0.7500   -4.7840    1.2760 c         1 MOL      0.749470
    155 O22        -0.4740   -4.3690    0.1290 o         1 MOL     -0.715543
    156 O23         0.2040   -5.2020    1.9710 o         1 MOL     -0.715543
    157 H67        -4.1110   -2.4200    1.3620 hn        1 MOL      0.059194
    158 H68        -4.0320   -3.9500    3.9660 h1        1 MOL      0.157369
    159 H69        -1.5610   -3.6640    3.6670 hc        1 MOL      0.087609
    160 H70        -1.7660   -2.5510    2.4140 hc        1 MOL      0.087609
    161 H71        -2.8310   -4.4410    1.0180 hc        1 MOL      0.042945
    162 H72        -2.5290   -5.5310    2.3910 hc        1 MOL      0.042945
    163 N14        -3.8080   -0.8190    4.1120 n         1 MOL     -0.142204
    164 C55        -3.7910    0.3790    4.9810 c3        1 MOL     -0.308282
    165 H73        -4.5310    0.2630    5.7730 h1        1 MOL      0.105528
    166 H74        -2.8020    0.4940    5.4230 h1        1 MOL      0.105528
    167 H75        -4.0300    1.2620    4.3890 h1        1 MOL      0.105528
    168 H76        -4.1160   -0.6020    3.1740 hn        1 MOL      0.168641
    169 Ca1        -1.1370   -2.7600   -1.8240 Ca        1 MOL      1.726102
    170 O24        -2.4590   -3.7260   -4.3510 oh        1 MOL     -0.880564
    171 H77        -3.1740   -4.2810   -4.6550 ho        1 MOL      0.425971
    172 H78        -1.9360   -3.5610   -5.1330 ho        1 MOL      0.425971
    173 O25        -2.7770   -0.9300   -3.0130 oh        1 MOL     -0.880564
    174 H79        -3.3850   -1.0920   -3.7200 ho        1 MOL      0.425971
    175 H80        -3.0330   -0.0750   -2.6640 ho        1 MOL      0.425971
    176 O26        -3.1630   -4.4980   -1.5660 oh        1 MOL     -0.880564
    177 H81        -3.4270   -5.3810   -1.3080 ho        1 MOL      0.425971
    178 H82        -3.8890   -4.1720   -2.0900 ho        1 MOL      0.425971
@<TRIPOS>BOND
     1    1    2 1   
     2    1    4 1   
     3    1    5 1   
     4    1    6 1   
     5    2    3 2   
     6    2    7 1   
     7    7    8 1   
     8    7   15 1   
     9    8    9 1   
    10    8   11 1   
    11    8   16 1   
    12    9   10 2   
    13    9   19 1   
    14   11   12 1   
    15   11   17 1   
    16   11   18 1   
    17   12   13 1   
    18   12   14 1   
    19   19   20 1   
    20   19   24 1   
    21   20   21 1   
    22   20   23 1   
    23   20   25 1   
    24   21   22 2   
    25   21   29 1   
    26   23   26 1   
    27   23   27 1   
    28   23   28 1   
    29   29   30 1   
    30   29   37 1   
    31   30   31 1   
    32   30   33 1   
    33   30   38 1   
    34   31   32 2   
    35   31   41 1   
    36   33   34 1   
    37   33   39 1   
    38   33   40 1   
    39   34   35 1   
    40   34   36 1   
    41   41   42 1   
    42   41   45 1   
    43   42   43 1   
    44   42   46 1   
    45   42   47 1   
    46   43   44 2   
    47   43   48 1   
    48   48   49 1   
    49   48   56 1   
    50   49   50 1   
    51   49   52 1   
    52   49   57 1   
    53   50   51 2   
    54   50   62 1   
    55   52   53 1   
    56   52   58 1   
    57   52   59 1   
    58   53   54 1   
    59   53   55 2   
    60   54   60 1   
    61   54   61 1   
    62   62   63 1   
    63   62   66 1   
    64   63   64 1   
    65   63   67 1   
    66   63   68 1   
    67   64   65 2   
    68   64   69 1   
    69   69   70 1   
    70   69   76 1   
    71   70   71 1   
    72   70   73 1   
    73   70   77 1   
    74   71   72 2   
    75   71   83 1   
    76   73   74 1   
    77   73   75 1   
    78   73   78 1   
    79   74   80 1   
    80   74   81 1   
    81   74   82 1   
    82   75   79 1   
    83   83   84 1   
    84   83   91 1   
    85   84   85 1   
    86   84   87 1   
    87   84   92 1   
    88   85   86 2   
    89   85  102 1   
    90   87   88 1   
    91   87   89 1   
    92   87   93 1   
    93   88   90 1   
    94   88   94 1   
    95   88   95 1   
    96   89   96 1   
    97   89   97 1   
    98   89   98 1   
    99   90   99 1   
   100   90  100 1   
   101   90  101 1   
   102  102  103 1   
   103  102  110 1   
   104  103  104 1   
   105  103  106 1   
   106  103  111 1   
   107  104  105 2   
   108  104  114 1   
   109  106  107 1   
   110  106  112 1   
   111  106  113 1   
   112  107  108 1   
   113  107  109 1   
   114  114  115 1   
   115  114  125 1   
   116  115  116 1   
   117  115  118 1   
   118  115  126 1   
   119  116  117 2   
   120  116  134 1   
   121  118  119 1   
   122  118  127 1   
   123  118  128 1   
   124  119  120 ar  
   125  119  121 ar  
   126  120  122 ar  
   127  120  129 1   
   128  121  123 ar  
   129  121  130 1   
   130  122  124 ar  
   131  122  131 1   
   132  123  124 ar  
   133  123  132 1   
   134  124  133 1   
   135  134  135 1   
   136  134  140 1   
   137  135  136 1   
   138  135  138 1   
   139  135  141 1   
   140  136  137 2   
   141  136  148 1   
   142  138  139 1   
   143  138  142 1   
   144  138  143 1   
   145  139  140 1   
   146  139  144 1   
   147  139  145 1   
   148  140  146 1   
   149  140  147 1   
   150  148  149 1   
   151  148  157 1   
   152  149  150 1   
   153  149  152 1   
   154  149  158 1   
   155  150  151 2   
   156  150  163 1   
   157  152  153 1   
   158  152  159 1   
   159  152  160 1   
   160  153  154 1   
   161  153  161 1   
   162  153  162 1   
   163  154  155 1   
   164  154  156 1   
   165  163  164 1   
   166  163  168 1   
   167  164  165 1   
   168  164  166 1   
   169  164  167 1   
   170  170  171 1   
   171  170  172 1   
   172  173  174 1   
   173  173  175 1   
   174  176  177 1   
   175  176  178 1   
@<TRIPOS>SUBSTRUCTURE
     1 MOL         1 TEMP              0 ****  ****    0 ROOT
