@<TRIPOS>MOLECULE
MOL
  189   185     1     0     0
SMALL
resp


@<TRIPOS>ATOM
      1 C1         10.1500   -0.1080    1.8700 c3        1 MOL     -0.547781
      2 C2          8.8980   -0.4250    1.1000 c         1 MOL      0.778125
      3 O1          7.8840   -0.8860    1.6730 o         1 MOL     -0.671131
      4 H1         10.2630   -0.8210    2.6860 hc        1 MOL      0.147013
      5 H2         11.0120   -0.1770    1.2060 hc        1 MOL      0.147013
      6 H3         10.0820    0.9010    2.2750 hc        1 MOL      0.147013
      7 N1          8.9010   -0.1290   -0.1480 n         1 MOL     -0.689979
      8 C3          7.6730    0.0630   -0.9320 c3        1 MOL      0.486229
      9 C4          7.0700   -1.2850   -1.4530 c         1 MOL      0.287443
     10 O2          6.8360   -1.3670   -2.6440 o         1 MOL     -0.426729
     11 C5          7.9020    1.1520   -2.0740 c3        1 MOL     -0.401110
     12 C6          8.4930    2.4530   -1.5400 c         1 MOL      0.765442
     13 O3          9.7580    2.6800   -1.4320 o         1 MOL     -0.634641
     14 O4          7.7480    3.2960   -0.9800 o         1 MOL     -0.634641
     15 H4          9.7700    0.1300   -0.5830 hn        1 MOL      0.327986
     16 H5          6.8860    0.3980   -0.2620 h1        1 MOL      0.022374
     17 H6          6.8860    1.3640   -2.4070 hc        1 MOL      0.096867
     18 H7          8.4770    0.8150   -2.9320 hc        1 MOL      0.096867
     19 N2          6.7180   -2.3040   -0.6040 n         1 MOL     -0.332475
     20 C7          6.1450   -3.5500   -1.0100 c3        1 MOL      0.124017
     21 C8          4.7390   -3.4910   -1.6650 c         1 MOL      0.580172
     22 O5          4.5500   -4.1140   -2.6660 o         1 MOL     -0.573949
     23 C9          6.2290   -4.6970    0.0290 c3        1 MOL     -0.197900
     24 C10         7.6960   -5.1130    0.2480 c3        1 MOL      0.174573
     25 C11         7.8190   -5.9440    1.5010 c3        1 MOL     -0.011891
     26 C12         9.2560   -6.2090    1.8380 c3        1 MOL      0.163197
     27 N3          9.4700   -7.3690    2.8170 n4        1 MOL     -0.432367
     28 H8          6.9690   -2.1400    0.3620 hn        1 MOL      0.268349
     29 H9          6.7570   -3.9070   -1.8400 h1        1 MOL      0.035003
     30 H10         5.6040   -5.5320   -0.2840 hc        1 MOL      0.060416
     31 H11         5.7590   -4.2820    0.9240 hc        1 MOL      0.060416
     32 H12         8.3020   -4.2260    0.3860 hc        1 MOL     -0.034605
     33 H13         8.0610   -5.6910   -0.6080 hc        1 MOL     -0.034605
     34 H14         7.3380   -6.9020    1.3150 hc        1 MOL      0.008933
     35 H15         7.3200   -5.4370    2.3210 hc        1 MOL      0.008933
     36 H16         9.7350   -5.2630    2.0830 hx        1 MOL      0.034846
     37 H17         9.8260   -6.6070    1.0000 hx        1 MOL      0.034846
     38 H18         8.9220   -7.1600    3.6410 hn        1 MOL      0.302801
     39 H19         9.1740   -8.2400    2.3890 hn        1 MOL      0.302801
     40 H20        10.4510   -7.5450    2.9370 hn        1 MOL      0.302801
     41 N4          3.7720   -2.7730   -1.1680 n         1 MOL     -0.527815
     42 C13         3.7030   -1.8150    0.0110 c3        1 MOL      0.096873
     43 C14         3.8600   -0.3590   -0.4250 c         1 MOL      0.111240
     44 O6          3.9980   -0.1010   -1.6440 o         1 MOL     -0.329081
     45 C15         2.4390   -2.0260    0.7740 c3        1 MOL     -0.130196
     46 C16         1.1870   -2.1390   -0.1770 c         1 MOL      0.402818
     47 O7          0.9450   -1.3510   -1.1460 o         1 MOL     -0.524377
     48 O8          0.3220   -2.9200    0.2590 o         1 MOL     -0.524377
     49 H21         2.9530   -2.7710   -1.7550 hn        1 MOL      0.403602
     50 H22         4.5630   -2.0550    0.6420 h1        1 MOL      0.080632
     51 H23         2.3290   -1.2230    1.4980 hc        1 MOL      0.062048
     52 H24         2.6170   -2.8760    1.4380 hc        1 MOL      0.062048
     53 N5          3.9680    0.6240    0.4770 n         1 MOL     -0.425299
     54 C17         4.0200    2.0690    0.1140 c3        1 MOL     -0.147643
     55 C18         2.7060    2.7520   -0.1870 c         1 MOL      0.584042
     56 O9          1.6850    2.0880   -0.2870 o         1 MOL     -0.501245
     57 H25         4.1280    0.4510    1.4630 hn        1 MOL      0.352357
     58 H26         4.6080    2.2450   -0.7900 h1        1 MOL      0.142761
     59 H27         4.5340    2.5270    0.9630 h1        1 MOL      0.142761
     60 N6          2.7030    4.0970   -0.3670 n         1 MOL     -0.544108
     61 C19         1.5370    5.0230   -0.7180 c3        1 MOL      0.362381
     62 C20         1.6590    6.4220   -0.0990 c         1 MOL      0.449423
     63 O10         2.7720    6.9210    0.1290 o         1 MOL     -0.551015
     64 C21         1.2820    5.1170   -2.2620 c3        1 MOL     -0.265922
     65 C22         1.1890    3.7050   -2.8400 c         1 MOL      0.786452
     66 O11         2.1500    3.3630   -3.5310 o         1 MOL     -0.682825
     67 O12         0.1920    2.9570   -2.6810 o         1 MOL     -0.682825
     68 H28         3.6010    4.5330   -0.2220 hn        1 MOL      0.286054
     69 H29         0.6740    4.5160   -0.2770 h1        1 MOL     -0.012895
     70 H30         1.9860    5.6970   -2.8600 hc        1 MOL      0.049538
     71 H31         0.2900    5.5210   -2.4480 hc        1 MOL      0.049538
     72 N7          0.6890    7.3090    0.0540 n         1 MOL     -0.432371
     73 C23        -0.7780    7.1140   -0.2180 c3        1 MOL     -0.002240
     74 C24        -1.3870    6.0840    0.8410 c         1 MOL      0.576940
     75 O13        -0.8130    5.9760    1.9360 o         1 MOL     -0.530339
     76 H32         1.0670    8.2370    0.1890 hn        1 MOL      0.322101
     77 H33        -1.0410    6.8300   -1.2400 h1        1 MOL      0.046101
     78 H34        -1.3180    8.0610   -0.1590 h1        1 MOL      0.046101
     79 N8         -2.3680    5.2760    0.5420 n         1 MOL     -0.628092
     80 C25        -2.8190    4.1570    1.3780 c3        1 MOL      0.015922
     81 C26        -1.6210    3.1680    1.6120 c         1 MOL      0.654992
     82 O14        -0.9980    2.7890    0.5710 o         1 MOL     -0.553930
     83 C27        -3.9550    3.3740    0.7560 c3        1 MOL      0.458117
     84 C28        -5.0610    4.2550    0.3940 c3        1 MOL     -0.277927
     85 O15        -4.3170    2.3510    1.6240 oh        1 MOL     -0.691687
     86 H35        -2.9070    5.4510   -0.2900 hn        1 MOL      0.342844
     87 H36        -3.2210    4.5130    2.3210 h1        1 MOL      0.085576
     88 H37        -3.6990    2.8580   -0.1820 h1        1 MOL     -0.009986
     89 H38        -4.9740    1.8760    1.1200 ho        1 MOL      0.339809
     90 H39        -5.9250    3.6930    0.0350 hc        1 MOL      0.062532
     91 H40        -5.4740    4.8110    1.2280 hc        1 MOL      0.062532
     92 H41        -4.7450    4.9460   -0.3850 hc        1 MOL      0.062532
     93 N9         -1.3980    2.6710    2.8460 n         1 MOL     -0.547387
     94 C29        -0.6640    1.4060    3.2940 c3        1 MOL      0.149933
     95 C30        -0.9870    0.2460    2.2880 c         1 MOL      0.178405
     96 O16        -0.3590    0.0820    1.2630 o         1 MOL     -0.210151
     97 C31         0.9160    1.6160    3.3030 c3        1 MOL      0.303222
     98 C32         1.1710    2.8770    4.1270 c3        1 MOL      0.015172
     99 C33         1.4910    0.4260    4.0440 c3        1 MOL     -0.366275
    100 C34         2.6950    3.1670    4.4280 c3        1 MOL     -0.253760
    101 H42        -1.7710    3.1880    3.6360 hn        1 MOL      0.253332
    102 H43        -0.8850    1.1220    4.3260 h1        1 MOL      0.023071
    103 H44         1.2030    1.7190    2.2640 hc        1 MOL     -0.049403
    104 H45         0.6750    2.7330    5.0820 hc        1 MOL      0.011070
    105 H46         0.8740    3.7740    3.6000 hc        1 MOL      0.011070
    106 H47         1.2790   -0.5100    3.5240 hc        1 MOL      0.074558
    107 H48         2.5400    0.5720    4.2870 hc        1 MOL      0.074558
    108 H49         1.0370    0.3580    5.0300 hc        1 MOL      0.074558
    109 H50         3.3690    2.8470    3.6270 hc        1 MOL      0.061862
    110 H51         2.7590    4.2250    4.6820 hc        1 MOL      0.061862
    111 H52         2.8880    2.7340    5.4060 hc        1 MOL      0.061862
    112 N10        -1.9160   -0.5790    2.7670 n         1 MOL     -0.259051
    113 C35        -2.3180   -1.8650    2.1150 c3        1 MOL     -0.175854
    114 C36        -3.8500   -2.0370    1.9420 c         1 MOL      0.543921
    115 O17        -4.2370   -2.9930    1.2300 o         1 MOL     -0.610210
    116 C37        -1.6250   -3.0010    2.9170 c3        1 MOL      0.478398
    117 C38        -1.8820   -2.8400    4.3970 c3        1 MOL     -0.180983
    118 O18        -0.2310   -3.0040    2.6940 oh        1 MOL     -0.602864
    119 H53        -2.3370   -0.2880    3.6310 hn        1 MOL      0.257696
    120 H54        -1.9340   -1.8980    1.0970 h1        1 MOL      0.078825
    121 H55        -2.0380   -3.9740    2.6350 h1        1 MOL     -0.019478
    122 H56        -0.0860   -3.0860    1.7460 ho        1 MOL      0.292488
    123 H57        -2.9570   -2.9590    4.5900 hc        1 MOL      0.023058
    124 H58        -1.3430   -3.6450    4.9140 hc        1 MOL      0.023058
    125 H59        -1.5510   -1.8710    4.7470 hc        1 MOL      0.023058
    126 N11        -4.6770   -1.1050    2.3900 n         1 MOL     -0.331989
    127 C39        -6.1510   -1.2960    2.2250 c3        1 MOL      0.095213
    128 C40        -6.4910   -0.9840    0.7530 c         1 MOL      0.459808
    129 O19        -6.3490    0.1130    0.2800 o         1 MOL     -0.429346
    130 C41        -6.9060   -0.3250    3.1200 c3        1 MOL      0.202888
    131 C42        -8.3910   -0.6430    3.1210 c3        1 MOL     -0.254977
    132 O20        -6.4050   -0.5620    4.4280 oh        1 MOL     -0.603646
    133 H60        -4.2980   -0.3610    2.9700 hn        1 MOL      0.245302
    134 H61        -6.4490   -2.3040    2.4940 h1        1 MOL      0.085112
    135 H62        -6.8530    0.7330    2.8710 h1        1 MOL      0.067886
    136 H63        -6.8820    0.0430    5.0080 ho        1 MOL      0.398114
    137 H64        -8.8870   -0.6400    2.1540 hc        1 MOL      0.061793
    138 H65        -8.6170   -1.6270    3.5330 hc        1 MOL      0.061793
    139 H66        -8.9910    0.0850    3.6720 hc        1 MOL      0.061793
    140 N12        -7.1780   -1.9420    0.0600 n         1 MOL     -0.410467
    141 C43        -7.5810   -1.9130   -1.2960 c3        1 MOL     -0.028526
    142 C44        -6.3060   -1.7550   -2.3020 c         1 MOL      0.510358
    143 O21        -6.4100   -1.0250   -3.3350 o         1 MOL     -0.512104
    144 C45        -8.7450   -0.9480   -1.5470 c3        1 MOL     -0.193003
    145 C46        -9.9680   -1.2800   -0.7280 c3        1 MOL      0.103576
    146 C47       -10.7620   -2.4070   -1.3110 c3        1 MOL      0.066524
    147 C48       -11.9380   -2.7980   -0.4890 c3        1 MOL     -0.097640
    148 N13       -12.5320   -4.2000   -0.8470 n4        1 MOL     -0.059281
    149 H67        -7.4880   -2.6750    0.6850 hn        1 MOL      0.243358
    150 H68        -7.9270   -2.8510   -1.7420 h1        1 MOL      0.074563
    151 H69        -9.0600   -0.8470   -2.5810 hc        1 MOL      0.097999
    152 H70        -8.5130    0.0830   -1.2570 hc        1 MOL      0.097999
    153 H71       -10.6280   -0.4350   -0.5770 hc        1 MOL     -0.004426
    154 H72        -9.7350   -1.6430    0.2670 hc        1 MOL     -0.004426
    155 H73       -10.1640   -3.2810   -1.5730 hc        1 MOL      0.010977
    156 H74       -11.0860   -1.9630   -2.2520 hc        1 MOL      0.010977
    157 H75       -12.7010   -2.0730   -0.7530 hx        1 MOL      0.090459
    158 H76       -11.6820   -2.7370    0.5680 hx        1 MOL      0.090459
    159 H77       -11.9720   -4.9860   -0.5680 hn        1 MOL      0.165311
    160 H78       -13.4570   -4.3540   -0.4740 hn        1 MOL      0.165311
    161 H79       -12.6450   -4.4680   -1.8190 hn        1 MOL      0.165311
    162 N14        -5.1100   -2.2620   -1.9670 n         1 MOL     -0.473274
    163 C49        -3.9190   -1.8010   -2.4950 c3        1 MOL      0.091822
    164 C50        -2.7770   -1.9500   -1.4450 c         1 MOL      0.407918
    165 O22        -2.2520   -0.9210   -1.0480 o         1 MOL     -0.546330
    166 C51        -3.5580   -2.3960   -3.8480 c3        1 MOL     -0.203964
    167 C52        -2.1870   -2.0000   -4.3640 c3        1 MOL     -0.220128
    168 C53        -1.9380   -0.4310   -4.3030 c         1 MOL      0.807446
    169 O23        -0.8790   -0.1220   -3.7440 o         1 MOL     -0.683943
    170 O24        -2.7360    0.3760   -4.8390 o         1 MOL     -0.683943
    171 H80        -5.1120   -2.6870   -1.0440 hn        1 MOL      0.296678
    172 H81        -4.0500   -0.7390   -2.6810 h1        1 MOL      0.128117
    173 H82        -4.3020   -2.1040   -4.5790 hc        1 MOL      0.079195
    174 H83        -3.7240   -3.4670   -3.8800 hc        1 MOL      0.079195
    175 H84        -2.1070   -2.3530   -5.3950 hc        1 MOL      0.057468
    176 H85        -1.4350   -2.4130   -3.6980 hc        1 MOL      0.057468
    177 N15        -2.1870   -3.0920   -1.0690 n         1 MOL     -0.117391
    178 C54        -2.4380   -4.4450   -1.5430 c3        1 MOL     -0.175769
    179 H86        -3.5090   -4.5860   -1.6870 h1        1 MOL      0.068733
    180 H87        -1.9200   -4.6020   -2.4890 h1        1 MOL      0.068733
    181 H88        -2.0740   -5.1620   -0.8060 h1        1 MOL      0.068733
    182 H89        -1.3500   -2.9890   -0.5070 hn        1 MOL      0.253501
    183 Ca1        -0.3630    0.7970   -1.3160 Ca        1 MOL      1.522677
    184 O25        -2.7030    1.9360   -2.0860 oh        1 MOL     -0.827208
    185 H90        -3.4420    1.4100   -2.4010 ho        1 MOL      0.400914
    186 H91        -2.7820    2.7550   -2.5720 ho        1 MOL      0.400914
    187 O26         1.8210    0.5650   -2.8850 oh        1 MOL     -0.827208
    188 H92         2.5760    0.4770   -2.3130 ho        1 MOL      0.400914
    189 H93         1.8530    1.4730   -3.1900 ho        1 MOL      0.400914
@<TRIPOS>BOND
     1    1    2 1   
     2    1    4 1   
     3    1    5 1   
     4    1    6 1   
     5    2    3 2   
     6    2    7 1   
     7    7    8 1   
     8    7   15 1   
     9    8    9 1   
    10    8   11 1   
    11    8   16 1   
    12    9   10 2   
    13    9   19 1   
    14   11   12 1   
    15   11   17 1   
    16   11   18 1   
    17   12   13 1   
    18   12   14 1   
    19   19   20 1   
    20   19   28 1   
    21   20   21 1   
    22   20   23 1   
    23   20   29 1   
    24   21   22 2   
    25   21   41 1   
    26   23   24 1   
    27   23   30 1   
    28   23   31 1   
    29   24   25 1   
    30   24   32 1   
    31   24   33 1   
    32   25   26 1   
    33   25   34 1   
    34   25   35 1   
    35   26   27 1   
    36   26   36 1   
    37   26   37 1   
    38   27   38 1   
    39   27   39 1   
    40   27   40 1   
    41   41   42 1   
    42   41   49 1   
    43   42   43 1   
    44   42   45 1   
    45   42   50 1   
    46   43   44 2   
    47   43   53 1   
    48   45   46 1   
    49   45   51 1   
    50   45   52 1   
    51   46   47 1   
    52   46   48 1   
    53   53   54 1   
    54   53   57 1   
    55   54   55 1   
    56   54   58 1   
    57   54   59 1   
    58   55   56 2   
    59   55   60 1   
    60   60   61 1   
    61   60   68 1   
    62   61   62 1   
    63   61   64 1   
    64   61   69 1   
    65   62   63 2   
    66   62   72 1   
    67   64   65 1   
    68   64   70 1   
    69   64   71 1   
    70   65   66 1   
    71   65   67 1   
    72   72   73 1   
    73   72   76 1   
    74   73   74 1   
    75   73   77 1   
    76   73   78 1   
    77   74   75 2   
    78   74   79 1   
    79   79   80 1   
    80   79   86 1   
    81   80   81 1   
    82   80   83 1   
    83   80   87 1   
    84   81   82 2   
    85   81   93 1   
    86   83   84 1   
    87   83   85 1   
    88   83   88 1   
    89   84   90 1   
    90   84   91 1   
    91   84   92 1   
    92   85   89 1   
    93   93   94 1   
    94   93  101 1   
    95   94   95 1   
    96   94   97 1   
    97   94  102 1   
    98   95   96 2   
    99   95  112 1   
   100   97   98 1   
   101   97   99 1   
   102   97  103 1   
   103   98  100 1   
   104   98  104 1   
   105   98  105 1   
   106   99  106 1   
   107   99  107 1   
   108   99  108 1   
   109  100  109 1   
   110  100  110 1   
   111  100  111 1   
   112  112  113 1   
   113  112  119 1   
   114  113  114 1   
   115  113  116 1   
   116  113  120 1   
   117  114  115 2   
   118  114  126 1   
   119  116  117 1   
   120  116  118 1   
   121  116  121 1   
   122  117  123 1   
   123  117  124 1   
   124  117  125 1   
   125  118  122 1   
   126  126  127 1   
   127  126  133 1   
   128  127  128 1   
   129  127  130 1   
   130  127  134 1   
   131  128  129 2   
   132  128  140 1   
   133  130  131 1   
   134  130  132 1   
   135  130  135 1   
   136  131  137 1   
   137  131  138 1   
   138  131  139 1   
   139  132  136 1   
   140  140  141 1   
   141  140  149 1   
   142  141  142 1   
   143  141  144 1   
   144  141  150 1   
   145  142  143 2   
   146  142  162 1   
   147  144  145 1   
   148  144  151 1   
   149  144  152 1   
   150  145  146 1   
   151  145  153 1   
   152  145  154 1   
   153  146  147 1   
   154  146  155 1   
   155  146  156 1   
   156  147  148 1   
   157  147  157 1   
   158  147  158 1   
   159  148  159 1   
   160  148  160 1   
   161  148  161 1   
   162  162  163 1   
   163  162  171 1   
   164  163  164 1   
   165  163  166 1   
   166  163  172 1   
   167  164  165 2   
   168  164  177 1   
   169  166  167 1   
   170  166  173 1   
   171  166  174 1   
   172  167  168 1   
   173  167  175 1   
   174  167  176 1   
   175  168  169 1   
   176  168  170 1   
   177  177  178 1   
   178  177  182 1   
   179  178  179 1   
   180  178  180 1   
   181  178  181 1   
   182  184  185 1   
   183  184  186 1   
   184  187  188 1   
   185  187  189 1   
@<TRIPOS>SUBSTRUCTURE
     1 MOL         1 TEMP              0 ****  ****    0 ROOT
