@<TRIPOS>MOLECULE
MOL
  182   178     1     0     0
SMALL
resp


@<TRIPOS>ATOM
      1 C1          1.0270   -4.0790    6.3270 c3        1 MOL     -0.380910
      2 C2          0.9540   -3.9020    4.7680 c         1 MOL      0.820313
      3 O1          0.0460   -4.2340    4.0570 o         1 MOL     -0.614025
      4 H1          1.1720   -3.1060    6.7970 hc        1 MOL      0.098970
      5 H2          0.0970   -4.5210    6.6870 hc        1 MOL      0.098970
      6 H3          1.8620   -4.7320    6.5810 hc        1 MOL      0.098970
      7 N1          1.9870   -3.1850    4.2840 n         1 MOL     -0.709226
      8 C3          2.3460   -2.8230    2.9180 c3        1 MOL     -0.272326
      9 C4          2.8410   -4.1510    2.2270 c         1 MOL      0.919693
     10 O2          3.4430   -5.0630    2.8590 o         1 MOL     -0.608273
     11 C5          3.4460   -1.7860    2.9990 c3        1 MOL      0.281370
     12 C6          3.6440   -1.0590    1.7180 c         1 MOL      0.257289
     13 O3          4.0400    0.1190    1.7100 o         1 MOL     -0.627894
     14 O4          3.3820   -1.5370    0.5900 o         1 MOL     -0.627894
     15 H4          2.7060   -2.9610    4.9530 hn        1 MOL      0.340653
     16 H5          1.4150   -2.3930    2.5540 h1        1 MOL      0.089278
     17 H6          4.3870   -2.2800    3.2280 hc        1 MOL     -0.014804
     18 H7          3.2330   -1.1180    3.8400 hc        1 MOL     -0.014804
     19 N2          2.6070   -4.2740    0.9470 n         1 MOL     -0.643013
     20 C7          3.0730   -5.3190    0.0850 c3        1 MOL      0.174341
     21 C8          4.3670   -5.1790   -0.7540 c         1 MOL      0.345690
     22 O5          5.1390   -6.1000   -0.9350 o         1 MOL     -0.514837
     23 C9          1.8880   -5.8370   -0.7750 c3        1 MOL     -0.150142
     24 C10         2.2760   -6.7690   -1.9990 c3        1 MOL     -0.035437
     25 C11         1.1870   -7.3210   -2.9830 c3        1 MOL     -0.075382
     26 C12         0.0410   -7.9840   -2.1350 c3        1 MOL      0.120594
     27 N3         -1.0030   -8.5900   -3.0360 n4        1 MOL     -0.254550
     28 H8          2.4180   -3.3350    0.6100 hn        1 MOL      0.286257
     29 H9          3.3110   -6.1600    0.7280 h1        1 MOL      0.086461
     30 H10         1.2720   -5.0420   -1.1810 hc        1 MOL      0.049210
     31 H11         1.3160   -6.4360   -0.0640 hc        1 MOL      0.049210
     32 H12         2.8300   -7.6180   -1.5800 hc        1 MOL      0.056884
     33 H13         2.9930   -6.2760   -2.6560 hc        1 MOL      0.056884
     34 H14         1.4970   -8.1460   -3.6180 hc        1 MOL      0.043083
     35 H15         0.7700   -6.5380   -3.6150 hc        1 MOL      0.043083
     36 H16        -0.4190   -7.2220   -1.5040 hx        1 MOL      0.055563
     37 H17         0.4830   -8.7570   -1.5090 hx        1 MOL      0.055563
     38 H18        -1.7170   -8.9710   -2.4330 hn        1 MOL      0.253561
     39 H19        -1.5070   -7.8590   -3.5240 hn        1 MOL      0.253561
     40 H20        -0.7700   -9.3180   -3.6970 hn        1 MOL      0.253561
     41 N4          4.4990   -3.9830   -1.2920 n         1 MOL     -0.255561
     42 C13         5.7080   -3.4240   -2.0090 c3        1 MOL     -0.009611
     43 C14         6.6610   -2.5560   -1.1700 c         1 MOL      0.472181
     44 O6          7.7240   -2.1370   -1.6340 o         1 MOL     -0.537027
     45 C15         5.3430   -2.7970   -3.3070 c3        1 MOL     -0.228347
     46 C16         4.2210   -1.7280   -3.2580 c         1 MOL      0.769678
     47 O7          3.8600   -1.2210   -2.2000 o         1 MOL     -0.738871
     48 O8          3.7040   -1.3550   -4.3380 o         1 MOL     -0.738871
     49 H21         3.7550   -3.3300   -1.0850 hn        1 MOL      0.229279
     50 H22         6.3340   -4.2890   -2.2370 h1        1 MOL      0.119019
     51 H23         4.8990   -3.4680   -4.0460 hc        1 MOL      0.075735
     52 H24         6.2770   -2.3840   -3.7030 hc        1 MOL      0.075735
     53 N5          6.2890   -2.2770    0.0820 n         1 MOL     -0.193596
     54 C17         7.0230   -1.5740    1.1350 c3        1 MOL     -0.248335
     55 C18         7.2230   -0.0790    0.8070 c         1 MOL      0.547818
     56 O9          8.1220    0.5020    1.4190 o         1 MOL     -0.565131
     57 H25         5.3910   -2.5910    0.4150 hn        1 MOL      0.189718
     58 H26         7.9520   -2.1170    1.3370 h1        1 MOL      0.140954
     59 H27         6.5810   -1.7100    2.1170 h1        1 MOL      0.140954
     60 N6          6.4030    0.5430   -0.0520 n         1 MOL     -0.163483
     61 C19         6.7350    1.8350   -0.6660 c3        1 MOL      0.041629
     62 C20         5.4630    2.6550   -0.9900 c         1 MOL      0.365774
     63 O10         4.3700    2.1330   -1.0460 o         1 MOL     -0.517605
     64 C21         7.3810    1.4490   -2.0710 c3        1 MOL     -0.178736
     65 C22         8.1600    2.6000   -2.6950 c         1 MOL      0.615335
     66 N7          9.5140    2.6490   -2.7170 n         1 MOL     -0.803325
     67 O11         7.6060    3.6070   -3.1130 o         1 MOL     -0.555851
     68 H28         5.7510   -0.0490   -0.5330 hn        1 MOL      0.190750
     69 H29         7.4760    2.3670   -0.0680 h1        1 MOL      0.062500
     70 H30         6.5280    1.2400   -2.7190 hc        1 MOL      0.074811
     71 H31         7.9350    0.5400   -1.8990 hc        1 MOL      0.074811
     72 H32        10.0630    1.9380   -2.2600 hn        1 MOL      0.371164
     73 H33         9.9780    3.3800   -3.2390 hn        1 MOL      0.371164
     74 N8          5.6130    3.9790   -1.1240 n         1 MOL     -0.139990
     75 C23         4.6080    4.9820   -1.2290 c3        1 MOL     -0.418316
     76 C24         3.6200    4.9280   -0.1120 c         1 MOL      0.666868
     77 O12         3.9750    4.8940    1.0950 o         1 MOL     -0.538331
     78 H34         6.5170    4.3380   -0.8560 hn        1 MOL      0.278437
     79 H35         4.0610    4.8710   -2.1530 h1        1 MOL      0.171900
     80 H36         5.0800    5.9610   -1.0800 h1        1 MOL      0.171900
     81 N9          2.3300    5.0650   -0.4030 n         1 MOL     -0.524660
     82 C25         1.2470    4.8470    0.5370 c3        1 MOL      0.047806
     83 C26         1.2020    3.3800    1.0840 c         1 MOL      0.794279
     84 O13         1.8030    2.5110    0.4660 o         1 MOL     -0.596826
     85 C27        -0.0840    5.2780   -0.0900 c3        1 MOL     -0.426069
     86 C28        -0.3360    6.7680   -0.3230 ca        1 MOL      0.226545
     87 C29        -0.2730    7.5640    0.8540 ca        1 MOL     -0.209922
     88 C30        -0.8270    7.2020   -1.5600 ca        1 MOL     -0.209922
     89 C31        -0.8170    8.8670    0.7170 ca        1 MOL     -0.228692
     90 C32        -1.1480    8.5490   -1.6830 ca        1 MOL     -0.228692
     91 C33        -1.1590    9.3560   -0.5280 ca        1 MOL      0.288508
     92 O14        -1.4910   10.7050   -0.6600 oh        1 MOL     -0.460231
     93 H37         2.1170    5.1230   -1.3870 hn        1 MOL      0.308214
     94 H38         1.4290    5.5050    1.3950 h1        1 MOL      0.074648
     95 H39        -0.8360    5.1380    0.6880 hc        1 MOL      0.137067
     96 H40        -0.3450    4.7370   -1.0020 hc        1 MOL      0.137067
     97 H41        -0.0180    7.1190    1.8050 ha        1 MOL      0.154029
     98 H42        -0.8740    6.5510   -2.4280 ha        1 MOL      0.154029
     99 H43        -0.7620    9.5230    1.5640 ha        1 MOL      0.157879
    100 H44        -1.4540    9.0250   -2.6020 ha        1 MOL      0.157879
    101 H45        -1.6060   11.0670    0.2290 ho        1 MOL      0.339265
    102 N10         0.4230    3.2130    2.1400 n         1 MOL     -0.788196
    103 C34         0.0900    1.9270    2.8930 c3        1 MOL      0.172421
    104 C35        -0.1140    0.6750    1.9610 c         1 MOL      0.410605
    105 O15         0.8320    0.0790    1.4420 o         1 MOL     -0.285328
    106 C36         1.2450    1.6460    3.8840 c3        1 MOL      0.247375
    107 C37         1.0040    0.3940    4.7550 c3        1 MOL     -0.122059
    108 C38         1.5550    2.8440    4.7800 c3        1 MOL     -0.488839
    109 C39        -0.3620    0.4250    5.4710 c3        1 MOL     -0.140832
    110 H46        -0.0150    3.9870    2.6200 hn        1 MOL      0.375053
    111 H47        -0.8180    2.0400    3.4830 h1        1 MOL      0.068437
    112 H48         2.1450    1.5110    3.2670 hc        1 MOL      0.042657
    113 H49         1.8550    0.1670    5.3960 hc        1 MOL      0.090271
    114 H50         0.8540   -0.4420    4.0670 hc        1 MOL      0.090271
    115 H51         0.6780    3.0900    5.3850 hc        1 MOL      0.117383
    116 H52         2.5140    2.6880    5.2630 hc        1 MOL      0.117383
    117 H53         1.7650    3.7100    4.1390 hc        1 MOL      0.117383
    118 H54        -1.1810    0.4940    4.7540 hc        1 MOL      0.024222
    119 H55        -0.5400   -0.4760    6.0660 hc        1 MOL      0.024222
    120 H56        -0.4040    1.2950    6.1190 hc        1 MOL      0.024222
    121 N11        -1.4450    0.2510    1.8170 n         1 MOL     -0.527891
    122 C40        -1.9320   -1.0650    1.2370 c3        1 MOL     -0.050827
    123 C41        -3.2380   -0.9040    0.4040 c         1 MOL      0.760800
    124 O16        -3.3640   -1.5910   -0.5970 o         1 MOL     -0.615242
    125 C42        -2.1880   -2.0750    2.3650 c3        1 MOL      0.180202
    126 O17        -3.0810   -1.6530    3.4030 oh        1 MOL     -0.640980
    127 H57        -2.1170    0.8600    2.2680 hn        1 MOL      0.279883
    128 H58        -1.1220   -1.4510    0.6150 h1        1 MOL      0.054079
    129 H59        -1.2180   -2.2490    2.8340 h1        1 MOL      0.058339
    130 H60        -2.5640   -2.9950    1.9240 h1        1 MOL      0.058339
    131 H61        -3.1170   -2.1000    4.2420 ho        1 MOL      0.426461
    132 N12        -4.2070   -0.1510    0.8160 n         1 MOL     -0.691651
    133 C43        -5.5710    0.0040    0.3480 c3        1 MOL      0.338929
    134 C44        -5.5790    0.6630   -1.0840 c         1 MOL      0.562258
    135 O18        -4.6040    1.3940   -1.4490 o         1 MOL     -0.566077
    136 C45        -6.3920    0.6890    1.4260 c3        1 MOL     -0.342203
    137 H62        -3.8970    0.3010    1.6650 hn        1 MOL      0.315469
    138 H63        -5.9780   -0.9910    0.2150 h1        1 MOL      0.069689
    139 H64        -6.2100    0.1330    2.3500 hc        1 MOL      0.105944
    140 H65        -6.0820    1.7300    1.4240 hc        1 MOL      0.105944
    141 H66        -7.4690    0.5640    1.3180 hc        1 MOL      0.105944
    142 N13        -6.5860    0.4690   -1.9460 n         1 MOL     -0.673898
    143 C46        -7.8570   -0.2130   -1.6940 c3        1 MOL      0.411994
    144 C47        -9.0880    0.4960   -2.3000 c         1 MOL      0.554229
    145 O19        -8.9280    1.2050   -3.2760 o         1 MOL     -0.565106
    146 C48        -7.8160   -1.6670   -2.2470 c3        1 MOL     -0.348866
    147 H67        -6.4050    0.5440   -2.9310 hn        1 MOL      0.361603
    148 H68        -8.0360   -0.2710   -0.6200 h1        1 MOL     -0.102861
    149 H69        -6.9110   -2.1490   -1.8820 hc        1 MOL      0.100310
    150 H70        -8.5470   -2.2470   -1.6770 hc        1 MOL      0.100310
    151 H71        -7.9450   -1.6330   -3.3280 hc        1 MOL      0.100310
    152 N14       -10.3230    0.4010   -1.7420 n         1 MOL     -0.562678
    153 C49       -10.7400   -0.3830   -0.5840 c3        1 MOL     -0.094036
    154 C50       -10.4040    0.5380    0.6450 c         1 MOL      0.511133
    155 O20        -9.9450    0.0800    1.6820 o         1 MOL     -0.513081
    156 C51       -12.2530   -0.7750   -0.6330 c3        1 MOL     -0.047127
    157 C52       -12.5300   -1.8120   -1.6570 c3        1 MOL      0.113681
    158 C53       -11.8100   -3.1090   -1.4210 c         1 MOL      0.612009
    159 O21       -10.8090   -3.2910   -2.1050 o         1 MOL     -0.656683
    160 O22       -12.0780   -3.8860   -0.3910 o         1 MOL     -0.656683
    161 H72       -11.0910    0.7990   -2.2690 hn        1 MOL      0.350090
    162 H73       -10.1300   -1.2840   -0.5370 h1        1 MOL      0.177129
    163 H74       -12.8740    0.0830   -0.8870 hc        1 MOL      0.018470
    164 H75       -12.4330   -1.1880    0.3560 hc        1 MOL      0.018470
    165 H76       -12.4100   -1.5510   -2.7070 hc        1 MOL     -0.049526
    166 H77       -13.5870   -2.0800   -1.6750 hc        1 MOL     -0.049526
    167 N15       -10.5420    1.8650    0.5290 n         1 MOL     -0.380948
    168 C54        -9.7780    2.8140    1.4230 c3        1 MOL     -0.041992
    169 H78        -9.3940    3.6440    0.8290 h1        1 MOL      0.061344
    170 H79       -10.4440    3.2010    2.1960 h1        1 MOL      0.061344
    171 H80        -8.9470    2.2860    1.8900 h1        1 MOL      0.061344
    172 H81       -10.9570    2.1800   -0.3350 hn        1 MOL      0.265042
    173 Ca1         2.4210    0.5660   -1.0880 Ca        1 MOL      1.747842
    174 O23         0.5510   -1.4880   -1.4430 oh        1 MOL     -0.894723
    175 H82        -0.3150   -1.3700   -1.8220 ho        1 MOL      0.431941
    176 H83         0.7660   -2.4070   -1.5880 ho        1 MOL      0.431941
    177 O24         0.3220    1.5510   -2.4330 oh        1 MOL     -0.894723
    178 H84        -0.6040    1.6310   -2.1990 ho        1 MOL      0.431941
    179 H85         0.3010    1.2100   -3.3310 ho        1 MOL      0.431941
    180 O25         2.9080    1.0590   -3.8740 oh        1 MOL     -0.894723
    181 H86         3.3200    0.2090   -4.0280 ho        1 MOL      0.431941
    182 H87         2.7570    1.4120   -4.7540 ho        1 MOL      0.431941
@<TRIPOS>BOND
     1    1    2 1   
     2    1    4 1   
     3    1    5 1   
     4    1    6 1   
     5    2    3 2   
     6    2    7 1   
     7    7    8 1   
     8    7   15 1   
     9    8    9 1   
    10    8   11 1   
    11    8   16 1   
    12    9   10 2   
    13    9   19 1   
    14   11   12 1   
    15   11   17 1   
    16   11   18 1   
    17   12   13 1   
    18   12   14 1   
    19   19   20 1   
    20   19   28 1   
    21   20   21 1   
    22   20   23 1   
    23   20   29 1   
    24   21   22 2   
    25   21   41 1   
    26   23   24 1   
    27   23   30 1   
    28   23   31 1   
    29   24   25 1   
    30   24   32 1   
    31   24   33 1   
    32   25   26 1   
    33   25   34 1   
    34   25   35 1   
    35   26   27 1   
    36   26   36 1   
    37   26   37 1   
    38   27   38 1   
    39   27   39 1   
    40   27   40 1   
    41   41   42 1   
    42   41   49 1   
    43   42   43 1   
    44   42   45 1   
    45   42   50 1   
    46   43   44 2   
    47   43   53 1   
    48   45   46 1   
    49   45   51 1   
    50   45   52 1   
    51   46   47 1   
    52   46   48 1   
    53   53   54 1   
    54   53   57 1   
    55   54   55 1   
    56   54   58 1   
    57   54   59 1   
    58   55   56 2   
    59   55   60 1   
    60   60   61 1   
    61   60   68 1   
    62   61   62 1   
    63   61   64 1   
    64   61   69 1   
    65   62   63 2   
    66   62   74 1   
    67   64   65 1   
    68   64   70 1   
    69   64   71 1   
    70   65   66 1   
    71   65   67 2   
    72   66   72 1   
    73   66   73 1   
    74   74   75 1   
    75   74   78 1   
    76   75   76 1   
    77   75   79 1   
    78   75   80 1   
    79   76   77 2   
    80   76   81 1   
    81   81   82 1   
    82   81   93 1   
    83   82   83 1   
    84   82   85 1   
    85   82   94 1   
    86   83   84 2   
    87   83  102 1   
    88   85   86 1   
    89   85   95 1   
    90   85   96 1   
    91   86   87 ar  
    92   86   88 ar  
    93   87   89 ar  
    94   87   97 1   
    95   88   90 ar  
    96   88   98 1   
    97   89   91 ar  
    98   89   99 1   
    99   90   91 ar  
   100   90  100 1   
   101   91   92 1   
   102   92  101 1   
   103  102  103 1   
   104  102  110 1   
   105  103  104 1   
   106  103  106 1   
   107  103  111 1   
   108  104  105 2   
   109  104  121 1   
   110  106  107 1   
   111  106  108 1   
   112  106  112 1   
   113  107  109 1   
   114  107  113 1   
   115  107  114 1   
   116  108  115 1   
   117  108  116 1   
   118  108  117 1   
   119  109  118 1   
   120  109  119 1   
   121  109  120 1   
   122  121  122 1   
   123  121  127 1   
   124  122  123 1   
   125  122  125 1   
   126  122  128 1   
   127  123  124 2   
   128  123  132 1   
   129  125  126 1   
   130  125  129 1   
   131  125  130 1   
   132  126  131 1   
   133  132  133 1   
   134  132  137 1   
   135  133  134 1   
   136  133  136 1   
   137  133  138 1   
   138  134  135 2   
   139  134  142 1   
   140  136  139 1   
   141  136  140 1   
   142  136  141 1   
   143  142  143 1   
   144  142  147 1   
   145  143  144 1   
   146  143  146 1   
   147  143  148 1   
   148  144  145 2   
   149  144  152 1   
   150  146  149 1   
   151  146  150 1   
   152  146  151 1   
   153  152  153 1   
   154  152  161 1   
   155  153  154 1   
   156  153  156 1   
   157  153  162 1   
   158  154  155 2   
   159  154  167 1   
   160  156  157 1   
   161  156  163 1   
   162  156  164 1   
   163  157  158 1   
   164  157  165 1   
   165  157  166 1   
   166  158  159 1   
   167  158  160 1   
   168  167  168 1   
   169  167  172 1   
   170  168  169 1   
   171  168  170 1   
   172  168  171 1   
   173  174  175 1   
   174  174  176 1   
   175  177  178 1   
   176  177  179 1   
   177  180  181 1   
   178  180  182 1   
@<TRIPOS>SUBSTRUCTURE
     1 MOL         1 TEMP              0 ****  ****    0 ROOT
