@<TRIPOS>MOLECULE
MOL
  181   177     1     0     0
SMALL
resp


@<TRIPOS>ATOM
      1 C1         -9.8640    6.8090    2.3110 c3        1 MOL     -0.351523
      2 C2         -8.8920    6.2820    1.2460 c         1 MOL      0.759139
      3 O1         -7.9130    6.9880    0.9930 o         1 MOL     -0.597473
      4 H1        -10.6620    7.3720    1.8270 hc        1 MOL      0.084651
      5 H2        -10.2930    5.9700    2.8590 hc        1 MOL      0.084651
      6 H3         -9.3280    7.4590    3.0020 hc        1 MOL      0.084651
      7 N1         -9.0330    5.0680    0.7530 n         1 MOL     -0.814892
      8 C3        -10.0390    4.0760    1.2300 c3        1 MOL      0.417728
      9 C4        -10.6480    3.3750    0.0240 c         1 MOL      0.250985
     10 O2        -11.6200    2.6340    0.1620 o         1 MOL     -0.536550
     11 C5         -9.3580    3.1380    2.1800 c3        1 MOL     -0.165339
     12 C6         -8.1070    2.4800    1.6320 c         1 MOL      0.727467
     13 O3         -7.2570    2.2050    2.4690 o         1 MOL     -0.712002
     14 O4         -7.8490    2.2370    0.4480 o         1 MOL     -0.712002
     15 H4         -8.3580    4.6780    0.1130 hn        1 MOL      0.405101
     16 H5        -10.8770    4.4650    1.8210 h1        1 MOL      0.012721
     17 H6        -10.0650    2.3630    2.4670 hc        1 MOL      0.035926
     18 H7         -9.1590    3.5710    3.1670 hc        1 MOL      0.035926
     19 N2        -10.0980    3.4770   -1.2090 n         1 MOL     -0.283672
     20 C7        -10.6450    2.9340   -2.4060 c3        1 MOL      0.241094
     21 C8        -10.1880    1.4510   -2.6720 c         1 MOL      0.327954
     22 O5        -10.6390    0.8490   -3.6460 o         1 MOL     -0.536556
     23 C9        -10.2380    3.8850   -3.5400 c3        1 MOL     -0.290089
     24 H8         -9.2080    3.9460   -1.2490 hn        1 MOL      0.218287
     25 H9        -11.7300    2.8820   -2.3170 h1        1 MOL      0.057831
     26 H10       -10.5250    4.8850   -3.2010 hc        1 MOL      0.080829
     27 H11        -9.1590    3.9380   -3.6960 hc        1 MOL      0.080829
     28 H12       -10.7920    3.7490   -4.4690 hc        1 MOL      0.080829
     29 N3         -9.3340    0.8930   -1.7990 n         1 MOL     -0.086734
     30 C10        -8.7510   -0.4430   -2.0170 c3        1 MOL     -0.146760
     31 C11        -8.3540   -1.2450   -0.7470 c         1 MOL      0.367987
     32 O6         -8.1850   -0.6240    0.3350 o         1 MOL     -0.482780
     33 C12        -7.5370   -0.3030   -2.9730 c3        1 MOL     -0.117237
     34 C13        -6.4770    0.8720   -2.6770 c         1 MOL      0.741450
     35 O7         -6.4890    1.8220   -3.5030 o         1 MOL     -0.703086
     36 O8         -5.8510    0.8160   -1.6180 o         1 MOL     -0.703086
     37 H13        -8.8830    1.4350   -1.0870 hn        1 MOL      0.180475
     38 H14        -9.4450   -1.0530   -2.5940 h1        1 MOL      0.092076
     39 H15        -8.0010   -0.0700   -3.9200 hc        1 MOL      0.024271
     40 H16        -6.9420   -1.2150   -3.1050 hc        1 MOL      0.024271
     41 N4         -8.1730   -2.5710   -0.8280 n         1 MOL     -0.177280
     42 C14        -7.8530   -3.4790    0.2630 c3        1 MOL     -0.596794
     43 C15        -6.3980   -3.3440    0.8810 c         1 MOL      0.841245
     44 O9         -5.6670   -2.3560    0.5760 o         1 MOL     -0.577831
     45 H17        -8.3570   -3.0700   -1.6830 hn        1 MOL      0.276124
     46 H18        -8.0020   -4.4540   -0.2000 h1        1 MOL      0.213296
     47 H19        -8.5050   -3.1890    1.0910 h1        1 MOL      0.213296
     48 N5         -6.0560   -4.2090    1.7700 n         1 MOL     -0.710478
     49 C16        -4.6510   -4.0520    2.4230 c3        1 MOL      0.309184
     50 C17        -3.5230   -4.4360    1.4590 c         1 MOL      0.539257
     51 O10        -3.6000   -5.3680    0.6680 o         1 MOL     -0.517504
     52 C18        -4.5130   -4.8910    3.7600 c3        1 MOL     -0.335993
     53 C19        -5.5410   -4.4950    4.8730 c         1 MOL      0.803380
     54 N6         -5.7120   -5.2420    5.8710 n         1 MOL     -0.790994
     55 O11        -6.1900   -3.4680    4.7630 o         1 MOL     -0.651027
     56 H20        -6.6200   -5.0470    1.8960 hn        1 MOL      0.357056
     57 H21        -4.5070   -2.9980    2.6660 h1        1 MOL     -0.006586
     58 H22        -3.5130   -4.8070    4.1780 hc        1 MOL      0.076525
     59 H23        -4.6780   -5.9500    3.5670 hc        1 MOL      0.076525
     60 H24        -5.1590   -6.0890    5.9130 hn        1 MOL      0.381609
     61 H25        -6.2770   -4.7780    6.5580 hn        1 MOL      0.381609
     62 N7         -2.4090   -3.6150    1.4920 n         1 MOL     -0.460566
     63 C20        -1.2050   -3.8480    0.6170 c3        1 MOL     -0.063669
     64 C21        -1.4520   -3.3900   -0.8420 c         1 MOL      0.603984
     65 O12        -2.3620   -2.6420   -1.1000 o         1 MOL     -0.568547
     66 H26        -2.4200   -2.9860    2.2810 hn        1 MOL      0.276950
     67 H27        -0.9480   -4.9060    0.6000 h1        1 MOL      0.107080
     68 H28        -0.2990   -3.3110    0.9030 h1        1 MOL      0.107080
     69 N8         -0.6310   -3.7990   -1.8070 n         1 MOL     -0.316244
     70 C22         0.5510   -4.7230   -1.7630 c3        1 MOL     -0.091823
     71 C23         1.9070   -3.9670   -1.6520 c         1 MOL      0.458319
     72 O13         2.9540   -4.5700   -1.6640 o         1 MOL     -0.523027
     73 C24         0.5830   -5.6350   -2.9960 c3        1 MOL      0.272192
     74 C25        -0.6260   -6.6400   -2.8870 c3        1 MOL     -0.415500
     75 O14         0.4510   -4.7240   -4.0970 oh        1 MOL     -0.544512
     76 H29        -0.8730   -3.4440   -2.7170 hn        1 MOL      0.282900
     77 H30         0.4150   -5.2680   -0.8190 h1        1 MOL      0.107569
     78 H31         1.5520   -6.1430   -3.0460 h1        1 MOL      0.044052
     79 H32         0.8460   -5.1830   -4.8470 ho        1 MOL      0.396268
     80 H33        -0.4360   -7.3940   -2.1220 hc        1 MOL      0.104114
     81 H34        -1.4630   -6.0770   -2.4780 hc        1 MOL      0.104114
     82 H35        -0.7440   -7.1140   -3.8630 hc        1 MOL      0.104114
     83 N9          1.8260   -2.6370   -1.5170 n         1 MOL     -0.360253
     84 C26         2.9230   -1.7440   -1.8330 c3        1 MOL     -0.023307
     85 C27         3.1070   -0.6960   -0.7190 c         1 MOL      0.596030
     86 O15         2.2320    0.0910   -0.3680 o         1 MOL     -0.563973
     87 C28         2.7970   -0.9470   -3.1650 c3        1 MOL      0.110640
     88 C29         2.4350   -1.8270   -4.4280 c3        1 MOL      0.099102
     89 C30         4.0030   -0.0740   -3.5030 c3        1 MOL     -0.036710
     90 C31         3.3330   -3.0130   -4.7130 c3        1 MOL     -0.208812
     91 H36         0.9060   -2.2180   -1.4810 hn        1 MOL      0.203640
     92 H37         3.7600   -2.4430   -1.8980 h1        1 MOL      0.126312
     93 H38         2.0050   -0.1950   -3.1270 hc        1 MOL      0.010224
     94 H39         2.3480   -1.1960   -5.3120 hc        1 MOL     -0.033099
     95 H40         1.4350   -2.2040   -4.1950 hc        1 MOL     -0.033099
     96 H41         3.7200    0.4620   -4.4040 hc        1 MOL      0.017091
     97 H42         4.1000    0.7780   -2.8320 hc        1 MOL      0.017091
     98 H43         4.9240   -0.6360   -3.6980 hc        1 MOL      0.017091
     99 H44         2.8300   -3.9170   -4.3910 hc        1 MOL      0.028250
    100 H45         3.4680   -3.0670   -5.8030 hc        1 MOL      0.028250
    101 H46         4.2800   -2.7900   -4.2230 hc        1 MOL      0.028250
    102 N10         4.2270   -0.7090    0.0050 n         1 MOL     -0.506743
    103 C32         5.3890   -1.5370   -0.1140 c3        1 MOL     -0.025916
    104 C33         6.7490   -0.7750    0.2540 c         1 MOL      0.497071
    105 O16         6.7210    0.2200    0.9040 o         1 MOL     -0.475114
    106 C34         5.1620   -2.7990    0.6980 c3        1 MOL     -0.055970
    107 C35         4.7350   -2.5240    2.0790 c         1 MOL      0.619060
    108 O17         5.6620   -2.3210    2.9790 o         1 MOL     -0.704897
    109 O18         3.4790   -2.5520    2.3350 o         1 MOL     -0.704897
    110 H47         4.1670   -0.2750    0.9080 hn        1 MOL      0.363182
    111 H48         5.5560   -1.7990   -1.1630 h1        1 MOL      0.060456
    112 H49         6.0010   -3.4840    0.5750 hc        1 MOL     -0.004067
    113 H50         4.2940   -3.2590    0.2250 hc        1 MOL     -0.004067
    114 N11         7.9480   -1.0940   -0.2190 n         1 MOL     -0.548947
    115 C36         9.1970   -0.5240    0.2680 c3        1 MOL      0.474069
    116 C37         9.9400    0.3470   -0.7930 c         1 MOL      0.146297
    117 O19         9.8520   -0.0470   -1.9160 o         1 MOL     -0.498501
    118 C38        10.1780   -1.6660    0.6120 c3        1 MOL     -0.413453
    119 C39        11.5730   -1.1250    1.1860 ca        1 MOL      0.198598
    120 C40        12.6830   -0.8720    0.3520 ca        1 MOL     -0.211350
    121 C41        11.7000   -1.0110    2.5560 ca        1 MOL     -0.211350
    122 C42        13.8740   -0.3410    0.8800 ca        1 MOL     -0.118315
    123 C43        12.9510   -0.5970    3.1140 ca        1 MOL     -0.118315
    124 C44        14.0080   -0.2240    2.2620 ca        1 MOL     -0.127873
    125 H51         7.8940   -1.9140   -0.8150 hn        1 MOL      0.294571
    126 H52         8.9950   -0.0050    1.1970 h1        1 MOL      0.046852
    127 H53        10.2420   -2.2940   -0.2730 hc        1 MOL      0.112770
    128 H54         9.7570   -2.2670    1.4180 hc        1 MOL      0.112770
    129 H55        12.6100   -0.9980   -0.7120 ha        1 MOL      0.145076
    130 H56        10.8640   -1.2810    3.1820 ha        1 MOL      0.145076
    131 H57        14.6490    0.0910    0.2650 ha        1 MOL      0.105643
    132 H58        13.0840   -0.3830    4.1640 ha        1 MOL      0.105643
    133 H59        14.8620    0.2770    2.6970 ha        1 MOL      0.099025
    134 N12        10.6170    1.4790   -0.5650 n         1 MOL      0.217774
    135 C45        10.4440    2.2130    0.6910 c3        1 MOL      0.034204
    136 C46         9.0270    2.7440    1.0880 c         1 MOL      0.398466
    137 O20         8.6360    2.6670    2.2440 o         1 MOL     -0.538229
    138 C47        11.3290    3.4300    0.5660 c3        1 MOL      0.029329
    139 C48        12.1810    3.2210   -0.6680 c3        1 MOL     -0.181068
    140 C49        11.2710    2.2750   -1.5370 c3        1 MOL     -0.058020
    141 H60        10.7570    1.5720    1.5250 h1        1 MOL      0.016699
    142 H61        10.7660    4.3630    0.4630 hc        1 MOL      0.014464
    143 H62        11.9700    3.4760    1.4470 hc        1 MOL      0.014464
    144 H63        12.4120    4.1740   -1.1580 hc        1 MOL      0.052710
    145 H64        13.0560    2.7190   -0.2590 hc        1 MOL      0.052710
    146 H65        10.4710    2.6760   -2.1660 h1        1 MOL      0.026715
    147 H66        11.8480    1.5210   -2.0770 h1        1 MOL      0.026715
    148 N13         8.2330    3.2120    0.0970 n         1 MOL     -0.450313
    149 C50         6.8660    3.7560    0.4050 c3        1 MOL      0.273456
    150 C51         6.9910    5.0750    1.2700 c         1 MOL      0.358066
    151 O21         7.2850    6.1530    0.7470 o         1 MOL     -0.573149
    152 C52         6.1900    4.1050   -0.8970 c3        1 MOL      0.055506
    153 C53         5.7210    2.9430   -1.7220 c3        1 MOL      0.004966
    154 C54         4.9140    3.4840   -2.9860 c         1 MOL      0.663051
    155 O22         3.6630    3.2800   -2.9970 o         1 MOL     -0.708144
    156 O23         5.4790    3.9560   -3.9980 o         1 MOL     -0.708144
    157 H67         8.5380    3.2770   -0.8610 hn        1 MOL      0.325255
    158 H68         6.2570    3.0330    0.9360 h1        1 MOL      0.055864
    159 H69         6.7720    4.6500   -1.6370 hc        1 MOL     -0.038785
    160 H70         5.2610    4.6120   -0.6110 hc        1 MOL     -0.038785
    161 H71         5.0480    2.2950   -1.1540 hc        1 MOL     -0.063036
    162 H72         6.6070    2.4320   -2.0910 hc        1 MOL     -0.063036
    163 N14         6.7050    5.1150    2.5760 n         1 MOL     -0.245618
    164 C55         6.3350    4.0770    3.5630 c3        1 MOL     -0.251433
    165 H73         6.9810    3.2070    3.4340 h1        1 MOL      0.105132
    166 H74         6.4570    4.4740    4.5710 h1        1 MOL      0.105132
    167 H75         5.2960    3.7830    3.4100 h1        1 MOL      0.105132
    168 H76         6.6890    6.0220    3.0090 hn        1 MOL      0.238367
    169 Ca1        -5.8480    0.4730    0.9190 Ca        1 MOL      1.659270
    170 O24        -3.3750   -0.3720    0.2920 oh        1 MOL     -0.860387
    171 H77        -2.8500   -1.0810   -0.0700 ho        1 MOL      0.429992
    172 H78        -2.7790    0.3750    0.3200 ho        1 MOL      0.429992
    173 O25        -6.9440   -1.0060    3.0780 oh        1 MOL     -0.860387
    174 H79        -6.6910   -1.8600    3.4480 ho        1 MOL      0.429992
    175 H80        -7.5820   -0.6640    3.7000 ho        1 MOL      0.429992
    176 O26        -4.4150    2.7120    0.8220 oh        1 MOL     -0.860387
    177 H81        -5.0000    3.4490    0.6240 ho        1 MOL      0.429992
    178 H82        -3.5680    3.1180    0.9840 ho        1 MOL      0.429992
    179 O27        -4.2260    0.7280    3.0700 oh        1 MOL     -0.860387
    180 H83        -3.2760    0.8610    3.0630 ho        1 MOL      0.429992
    181 H84        -4.3830    0.1920    3.8340 ho        1 MOL      0.429992
@<TRIPOS>BOND
     1    1    2 1   
     2    1    4 1   
     3    1    5 1   
     4    1    6 1   
     5    2    3 2   
     6    2    7 1   
     7    7    8 1   
     8    7   15 1   
     9    8    9 1   
    10    8   11 1   
    11    8   16 1   
    12    9   10 2   
    13    9   19 1   
    14   11   12 1   
    15   11   17 1   
    16   11   18 1   
    17   12   13 1   
    18   12   14 1   
    19   19   20 1   
    20   19   24 1   
    21   20   21 1   
    22   20   23 1   
    23   20   25 1   
    24   21   22 2   
    25   21   29 1   
    26   23   26 1   
    27   23   27 1   
    28   23   28 1   
    29   29   30 1   
    30   29   37 1   
    31   30   31 1   
    32   30   33 1   
    33   30   38 1   
    34   31   32 2   
    35   31   41 1   
    36   33   34 1   
    37   33   39 1   
    38   33   40 1   
    39   34   35 1   
    40   34   36 1   
    41   41   42 1   
    42   41   45 1   
    43   42   43 1   
    44   42   46 1   
    45   42   47 1   
    46   43   44 2   
    47   43   48 1   
    48   48   49 1   
    49   48   56 1   
    50   49   50 1   
    51   49   52 1   
    52   49   57 1   
    53   50   51 2   
    54   50   62 1   
    55   52   53 1   
    56   52   58 1   
    57   52   59 1   
    58   53   54 1   
    59   53   55 2   
    60   54   60 1   
    61   54   61 1   
    62   62   63 1   
    63   62   66 1   
    64   63   64 1   
    65   63   67 1   
    66   63   68 1   
    67   64   65 2   
    68   64   69 1   
    69   69   70 1   
    70   69   76 1   
    71   70   71 1   
    72   70   73 1   
    73   70   77 1   
    74   71   72 2   
    75   71   83 1   
    76   73   74 1   
    77   73   75 1   
    78   73   78 1   
    79   74   80 1   
    80   74   81 1   
    81   74   82 1   
    82   75   79 1   
    83   83   84 1   
    84   83   91 1   
    85   84   85 1   
    86   84   87 1   
    87   84   92 1   
    88   85   86 2   
    89   85  102 1   
    90   87   88 1   
    91   87   89 1   
    92   87   93 1   
    93   88   90 1   
    94   88   94 1   
    95   88   95 1   
    96   89   96 1   
    97   89   97 1   
    98   89   98 1   
    99   90   99 1   
   100   90  100 1   
   101   90  101 1   
   102  102  103 1   
   103  102  110 1   
   104  103  104 1   
   105  103  106 1   
   106  103  111 1   
   107  104  105 2   
   108  104  114 1   
   109  106  107 1   
   110  106  112 1   
   111  106  113 1   
   112  107  108 1   
   113  107  109 1   
   114  114  115 1   
   115  114  125 1   
   116  115  116 1   
   117  115  118 1   
   118  115  126 1   
   119  116  117 2   
   120  116  134 1   
   121  118  119 1   
   122  118  127 1   
   123  118  128 1   
   124  119  120 ar  
   125  119  121 ar  
   126  120  122 ar  
   127  120  129 1   
   128  121  123 ar  
   129  121  130 1   
   130  122  124 ar  
   131  122  131 1   
   132  123  124 ar  
   133  123  132 1   
   134  124  133 1   
   135  134  135 1   
   136  134  140 1   
   137  135  136 1   
   138  135  138 1   
   139  135  141 1   
   140  136  137 2   
   141  136  148 1   
   142  138  139 1   
   143  138  142 1   
   144  138  143 1   
   145  139  140 1   
   146  139  144 1   
   147  139  145 1   
   148  140  146 1   
   149  140  147 1   
   150  148  149 1   
   151  148  157 1   
   152  149  150 1   
   153  149  152 1   
   154  149  158 1   
   155  150  151 2   
   156  150  163 1   
   157  152  153 1   
   158  152  159 1   
   159  152  160 1   
   160  153  154 1   
   161  153  161 1   
   162  153  162 1   
   163  154  155 1   
   164  154  156 1   
   165  163  164 1   
   166  163  168 1   
   167  164  165 1   
   168  164  166 1   
   169  164  167 1   
   170  170  171 1   
   171  170  172 1   
   172  173  174 1   
   173  173  175 1   
   174  176  177 1   
   175  176  178 1   
   176  179  180 1   
   177  179  181 1   
@<TRIPOS>SUBSTRUCTURE
     1 MOL         1 TEMP              0 ****  ****    0 ROOT
