@<TRIPOS>MOLECULE
MOL
  178   175     1     0     0
SMALL
resp


@<TRIPOS>ATOM
      1 C1         -3.9460   -2.6020   -2.9760 c3        1 MOL     -0.395272
      2 C2         -5.3360   -2.1990   -2.5410 c         1 MOL      0.641683
      3 O1         -5.5560   -1.0380   -2.3300 o         1 MOL     -0.553659
      4 H1         -3.8820   -3.6890   -3.0230 hc        1 MOL      0.105670
      5 H2         -3.7380   -2.1840   -3.9610 hc        1 MOL      0.105670
      6 H3         -3.2170   -2.2260   -2.2590 hc        1 MOL      0.105670
      7 N1         -6.2030   -3.1900   -2.2970 n         1 MOL     -0.548620
      8 C3         -7.6500   -3.0670   -2.3990 c3        1 MOL      0.308155
      9 C4         -8.2310   -2.3460   -1.1680 c         1 MOL      0.567074
     10 O2         -8.7960   -3.0140   -0.2910 o         1 MOL     -0.492052
     11 C5         -8.2600   -4.4110   -2.6080 c3        1 MOL     -0.346224
     12 C6         -9.7670   -4.4030   -2.7970 c         1 MOL      0.761020
     13 O3        -10.4590   -5.3490   -2.3310 o         1 MOL     -0.734934
     14 O4        -10.3050   -3.4270   -3.3270 o         1 MOL     -0.734934
     15 H4         -5.8610   -4.1330   -2.2110 hn        1 MOL      0.299093
     16 H5         -7.9450   -2.4110   -3.2220 h1        1 MOL     -0.041468
     17 H6         -8.0960   -4.9230   -1.6570 hc        1 MOL      0.037342
     18 H7         -7.7250   -4.9880   -3.3570 hc        1 MOL      0.037342
     19 N2         -8.1200   -0.9880   -1.2350 n         1 MOL     -0.584242
     20 C7         -8.1430   -0.0550   -0.1410 c3        1 MOL      0.289020
     21 C8         -6.7200    0.0310    0.5210 c         1 MOL      0.668366
     22 O5         -6.1870    1.0830    0.8490 o         1 MOL     -0.607653
     23 C9         -8.7160    1.3050   -0.7490 c3        1 MOL     -0.342414
     24 H8         -7.9230   -0.6490   -2.1610 hn        1 MOL      0.318661
     25 H9         -8.7610   -0.4080    0.6750 h1        1 MOL     -0.002692
     26 H10        -8.2180    1.5210   -1.6970 hc        1 MOL      0.086249
     27 H11        -9.7930    1.2430   -0.9270 hc        1 MOL      0.086249
     28 H12        -8.5950    2.0770    0.0140 hc        1 MOL      0.086249
     29 N3         -6.1650   -1.1700    0.8110 n         1 MOL     -0.611441
     30 C10        -4.7930   -1.3840    1.2680 c3        1 MOL      0.101257
     31 C11        -4.5750   -0.9440    2.7540 c         1 MOL      0.335677
     32 O6         -3.5030   -1.2530    3.2790 o         1 MOL     -0.446881
     33 C12        -4.3690   -2.8670    1.0740 c3        1 MOL      0.202150
     34 C13        -2.9180   -3.1850    1.3460 c         1 MOL      0.434761
     35 O7         -1.9740   -2.5810    0.8180 o         1 MOL     -0.682158
     36 O8         -2.7210   -4.0470    2.2400 o         1 MOL     -0.682158
     37 H13        -6.6910   -1.9640    0.4910 hn        1 MOL      0.208217
     38 H14        -4.1700   -0.8270    0.5630 h1        1 MOL      0.122140
     39 H15        -4.5610   -3.1470    0.0360 hc        1 MOL     -0.033625
     40 H16        -5.0040   -3.6230    1.5300 hc        1 MOL     -0.033625
     41 N4         -5.5270   -0.2650    3.3510 n         1 MOL     -0.094476
     42 C14        -5.3740    0.3060    4.7360 c3        1 MOL     -0.533028
     43 C15        -4.3250    1.4520    4.8260 c         1 MOL      0.626969
     44 O9         -3.8570    1.7460    5.9570 o         1 MOL     -0.542410
     45 H17        -6.4220   -0.1170    2.9070 hn        1 MOL      0.208360
     46 H18        -4.9390   -0.4310    5.4210 h1        1 MOL      0.203667
     47 H19        -6.3420    0.7410    4.9810 h1        1 MOL      0.203667
     48 N5         -3.8980    2.0860    3.6550 n         1 MOL     -0.471454
     49 C16        -2.8660    3.1380    3.6180 c3        1 MOL      0.021903
     50 C17        -3.1380    4.0690    2.4450 c         1 MOL      0.559140
     51 O10        -3.5570    3.6020    1.4430 o         1 MOL     -0.460716
     52 C18        -1.5780    2.3730    3.5970 c3        1 MOL     -0.214554
     53 C19        -0.4310    3.2660    3.3440 c         1 MOL      0.603635
     54 N6          0.2910    3.2400    2.2620 n         1 MOL     -0.738385
     55 O11        -0.1330    4.2120    4.1090 o         1 MOL     -0.616382
     56 H20        -4.3310    1.8480    2.7700 hn        1 MOL      0.293265
     57 H21        -3.0140    3.7280    4.5200 h1        1 MOL      0.043825
     58 H22        -1.6570    1.6740    2.7610 hc        1 MOL      0.127780
     59 H23        -1.4440    1.8520    4.5400 hc        1 MOL      0.127780
     60 H24         0.1230    2.5850    1.5160 hn        1 MOL      0.364899
     61 H25         0.9430    4.0070    2.2030 hn        1 MOL      0.364899
     62 N7         -2.9270    5.3850    2.5910 n         1 MOL     -0.423592
     63 C20        -2.9990    6.4300    1.5400 c3        1 MOL     -0.159762
     64 C21        -1.7580    6.6020    0.7670 c         1 MOL      0.679825
     65 O12        -0.7090    6.6170    1.4350 o         1 MOL     -0.540827
     66 H26        -2.5870    5.7420    3.4700 hn        1 MOL      0.314698
     67 H27        -3.1260    7.3450    2.1120 h1        1 MOL      0.084410
     68 H28        -3.8190    6.3140    0.8310 h1        1 MOL      0.084410
     69 N8         -1.7490    6.7020   -0.5350 n         1 MOL     -0.529091
     70 C22        -0.5340    7.1010   -1.2890 c3        1 MOL     -0.269634
     71 C23         0.4630    6.1130   -1.7650 c         1 MOL      0.559986
     72 O13         1.5640    6.5620   -2.0520 o         1 MOL     -0.552312
     73 C24        -0.8730    8.0740   -2.4590 c3        1 MOL      0.561686
     74 C25        -1.6440    7.2060   -3.4320 c3        1 MOL     -0.313564
     75 O14        -1.7210    9.0850   -2.0480 oh        1 MOL     -0.662475
     76 H29        -2.6280    6.5680   -1.0120 hn        1 MOL      0.309508
     77 H30         0.0010    7.8330   -0.6850 h1        1 MOL      0.151189
     78 H31         0.0770    8.4190   -2.8470 h1        1 MOL      0.011731
     79 H32        -2.5550    8.7130   -1.7540 ho        1 MOL      0.387307
     80 H33        -0.9580    7.0350   -4.2630 hc        1 MOL      0.058847
     81 H34        -1.8630    6.2390   -2.9660 hc        1 MOL      0.058847
     82 H35        -2.5480    7.6580   -3.8320 hc        1 MOL      0.058847
     83 N9          0.1400    4.7920   -1.7440 n         1 MOL     -0.249371
     84 C26         0.9440    3.6890   -2.1750 c3        1 MOL     -0.075550
     85 C27         0.8880    2.4500   -1.2690 c         1 MOL      0.392818
     86 O15        -0.1060    2.1260   -0.6140 o         1 MOL     -0.474458
     87 C28         0.6650    3.3410   -3.6690 c3        1 MOL      0.063499
     88 C29        -0.8570    3.0130   -3.8660 c3        1 MOL     -0.014407
     89 C30         1.1430    4.4610   -4.5970 c3        1 MOL     -0.098391
     90 C31        -1.1840    2.6600   -5.3520 c3        1 MOL     -0.029980
     91 H36        -0.8340    4.5960   -1.5720 hn        1 MOL      0.217822
     92 H37         1.9800    4.0200   -2.0230 h1        1 MOL      0.099219
     93 H38         1.2680    2.4740   -3.9410 hc        1 MOL      0.007888
     94 H39        -1.5010    3.8280   -3.5330 hc        1 MOL      0.054397
     95 H40        -1.1980    2.1250   -3.3300 hc        1 MOL      0.054397
     96 H41         0.4440    5.2910   -4.5780 hc        1 MOL      0.021847
     97 H42         2.0830    4.8610   -4.2030 hc        1 MOL      0.021847
     98 H43         1.3410    4.1910   -5.6370 hc        1 MOL      0.021847
     99 H44        -0.7880    3.4750   -5.9550 hc        1 MOL      0.002539
    100 H45        -0.9110    1.6500   -5.6460 hc        1 MOL      0.002539
    101 H46        -2.2620    2.7540   -5.4610 hc        1 MOL      0.002539
    102 N10         1.9590    1.6710   -1.3260 n         1 MOL     -0.438138
    103 C32         2.0930    0.4130   -0.5350 c3        1 MOL      0.189014
    104 C33         3.5400    0.0200   -0.3350 c         1 MOL      0.503792
    105 O16         3.8570   -1.1760   -0.2930 o         1 MOL     -0.425058
    106 C34         1.2900   -0.6800   -1.2540 c3        1 MOL     -0.274198
    107 C35         0.9370   -1.8020   -0.3760 c         1 MOL      0.718038
    108 O17         1.0510   -1.6650    0.8720 o         1 MOL     -0.745220
    109 O18         0.5540   -2.9150   -0.8390 o         1 MOL     -0.745220
    110 H47         2.7760    1.9960   -1.8210 hn        1 MOL      0.247386
    111 H48         1.7230    0.6830    0.4490 h1        1 MOL      0.043449
    112 H49         1.8730   -1.0620   -2.0870 hc        1 MOL      0.105397
    113 H50         0.3690   -0.2680   -1.6790 hc        1 MOL      0.105397
    114 N11         4.4720    0.9320   -0.1270 n         1 MOL     -0.454539
    115 C36         5.8300    0.7550    0.3770 c3        1 MOL      0.084025
    116 C37         6.5510   -0.3660   -0.3140 c         1 MOL      0.252114
    117 O19         6.4900   -0.5410   -1.5680 o         1 MOL     -0.517964
    118 C38         6.6200    2.1320    0.2710 c3        1 MOL     -0.023492
    119 C39         8.0660    2.1520    0.8250 ca        1 MOL      0.031424
    120 C40         8.4520    2.5790    2.1190 ca        1 MOL     -0.167497
    121 C41         9.0380    1.6510   -0.0480 ca        1 MOL     -0.167497
    122 C42         9.7650    2.5090    2.5160 ca        1 MOL     -0.083430
    123 C43        10.4390    1.6800    0.3180 ca        1 MOL     -0.083430
    124 C44        10.7710    2.0740    1.6190 ca        1 MOL     -0.135656
    125 H51         4.1950    1.9100   -0.1240 hn        1 MOL      0.241998
    126 H52         5.6680    0.5700    1.4340 h1        1 MOL      0.063735
    127 H53         6.0660    2.9540    0.7210 hc        1 MOL      0.054497
    128 H54         6.6560    2.5060   -0.7500 hc        1 MOL      0.054497
    129 H55         7.7230    2.9070    2.8420 ha        1 MOL      0.128713
    130 H56         8.8810    1.3490   -1.0670 ha        1 MOL      0.128713
    131 H57        10.0150    2.7850    3.5280 ha        1 MOL      0.108518
    132 H58        11.2520    1.3830   -0.3320 ha        1 MOL      0.108518
    133 H59        11.7690    2.0940    2.0350 ha        1 MOL      0.103495
    134 N12         7.3360   -1.2030    0.4340 n         1 MOL      0.097419
    135 C45         8.1660   -2.2410   -0.1270 c3        1 MOL      0.013665
    136 C46         7.4360   -3.2930   -1.0030 c         1 MOL      0.192291
    137 O20         8.1210   -4.0750   -1.6890 o         1 MOL     -0.504206
    138 C47         8.8190   -2.9530    1.1010 c3        1 MOL     -0.074095
    139 C48         8.9280   -1.7670    2.0610 c3        1 MOL     -0.047225
    140 C49         7.6320   -1.0560    1.8220 c3        1 MOL      0.107171
    141 H60         8.9320   -1.7800   -0.7400 h1        1 MOL      0.066039
    142 H61         8.1250   -3.7560    1.3780 hc        1 MOL      0.041784
    143 H62         9.7700   -3.3750    0.7890 hc        1 MOL      0.041784
    144 H63         8.9440   -2.1300    3.0950 hc        1 MOL      0.023428
    145 H64         9.7730   -1.1190    1.8570 hc        1 MOL      0.023428
    146 H65         6.7460   -1.4890    2.2900 h1        1 MOL     -0.036818
    147 H66         7.7710   -0.0200    2.1300 h1        1 MOL     -0.036818
    148 N13         6.1320   -3.3180   -0.9720 n         1 MOL      0.180220
    149 C50         5.3020   -4.3320   -1.7520 c3        1 MOL     -0.446437
    150 C51         5.1870   -3.7480   -3.1980 c         1 MOL      0.516117
    151 O21         5.3950   -4.4110   -4.1860 o         1 MOL     -0.539406
    152 C52         3.9400   -4.6310   -1.1830 c3        1 MOL      0.496557
    153 C53         4.1010   -5.0230    0.2930 c3        1 MOL     -0.373063
    154 C54         2.7200   -5.3250    0.8460 c         1 MOL      0.694487
    155 O22         1.8820   -5.8500    0.1390 o         1 MOL     -0.717926
    156 O23         2.4190   -4.9670    2.0010 o         1 MOL     -0.717926
    157 H67         5.7240   -2.7280   -0.2730 hn        1 MOL      0.114198
    158 H68         5.7960   -5.2920   -1.8330 h1        1 MOL      0.143812
    159 H69         3.3970   -5.3840   -1.7470 hc        1 MOL     -0.066165
    160 H70         3.3410   -3.7310   -1.2630 hc        1 MOL     -0.066165
    161 H71         4.7340   -4.3150    0.8190 hc        1 MOL      0.050738
    162 H72         4.5680   -6.0120    0.3500 hc        1 MOL      0.050738
    163 N14         4.9230   -2.4290   -3.3420 n         1 MOL     -0.143591
    164 C55         4.8470   -1.7500   -4.6040 c3        1 MOL     -0.558577
    165 H73         4.8050   -0.6740   -4.4350 h1        1 MOL      0.177073
    166 H74         5.7270   -1.9900   -5.2000 h1        1 MOL      0.177073
    167 H75         3.9500   -2.0690   -5.1350 h1        1 MOL      0.177073
    168 H76         4.8680   -1.9290   -2.4650 hn        1 MOL      0.212648
    169 Ca1         0.0470   -4.0340    1.4920 Ca        1 MOL      1.792857
    170 O24         0.9690   -2.7020    3.8000 oh        1 MOL     -0.870226
    171 H77         1.2950   -1.8110    3.9110 ho        1 MOL      0.422332
    172 H78         0.7640   -2.9940    4.6810 ho        1 MOL      0.422332
    173 O25        -1.1850   -6.1130    0.6370 oh        1 MOL     -0.870226
    174 H79        -1.2970   -6.2530   -0.3110 ho        1 MOL      0.422332
    175 H80        -1.9400   -6.5470    1.0360 ho        1 MOL      0.422332
    176 O26        -0.2200   -5.4620    3.8560 oh        1 MOL     -0.870226
    177 H81        -0.8730   -6.1390    4.0170 ho        1 MOL      0.422332
    178 H82         0.1560   -5.2770    4.7170 ho        1 MOL      0.422332
@<TRIPOS>BOND
     1    1    2 1   
     2    1    4 1   
     3    1    5 1   
     4    1    6 1   
     5    2    3 2   
     6    2    7 1   
     7    7    8 1   
     8    7   15 1   
     9    8    9 1   
    10    8   11 1   
    11    8   16 1   
    12    9   10 2   
    13    9   19 1   
    14   11   12 1   
    15   11   17 1   
    16   11   18 1   
    17   12   13 1   
    18   12   14 1   
    19   19   20 1   
    20   19   24 1   
    21   20   21 1   
    22   20   23 1   
    23   20   25 1   
    24   21   22 2   
    25   21   29 1   
    26   23   26 1   
    27   23   27 1   
    28   23   28 1   
    29   29   30 1   
    30   29   37 1   
    31   30   31 1   
    32   30   33 1   
    33   30   38 1   
    34   31   32 2   
    35   31   41 1   
    36   33   34 1   
    37   33   39 1   
    38   33   40 1   
    39   34   35 1   
    40   34   36 1   
    41   41   42 1   
    42   41   45 1   
    43   42   43 1   
    44   42   46 1   
    45   42   47 1   
    46   43   44 2   
    47   43   48 1   
    48   48   49 1   
    49   48   56 1   
    50   49   50 1   
    51   49   52 1   
    52   49   57 1   
    53   50   51 2   
    54   50   62 1   
    55   52   53 1   
    56   52   58 1   
    57   52   59 1   
    58   53   54 1   
    59   53   55 2   
    60   54   60 1   
    61   54   61 1   
    62   62   63 1   
    63   62   66 1   
    64   63   64 1   
    65   63   67 1   
    66   63   68 1   
    67   64   65 2   
    68   64   69 1   
    69   69   70 1   
    70   69   76 1   
    71   70   71 1   
    72   70   73 1   
    73   70   77 1   
    74   71   72 2   
    75   71   83 1   
    76   73   74 1   
    77   73   75 1   
    78   73   78 1   
    79   74   80 1   
    80   74   81 1   
    81   74   82 1   
    82   75   79 1   
    83   83   84 1   
    84   83   91 1   
    85   84   85 1   
    86   84   87 1   
    87   84   92 1   
    88   85   86 2   
    89   85  102 1   
    90   87   88 1   
    91   87   89 1   
    92   87   93 1   
    93   88   90 1   
    94   88   94 1   
    95   88   95 1   
    96   89   96 1   
    97   89   97 1   
    98   89   98 1   
    99   90   99 1   
   100   90  100 1   
   101   90  101 1   
   102  102  103 1   
   103  102  110 1   
   104  103  104 1   
   105  103  106 1   
   106  103  111 1   
   107  104  105 2   
   108  104  114 1   
   109  106  107 1   
   110  106  112 1   
   111  106  113 1   
   112  107  108 1   
   113  107  109 1   
   114  114  115 1   
   115  114  125 1   
   116  115  116 1   
   117  115  118 1   
   118  115  126 1   
   119  116  117 2   
   120  116  134 1   
   121  118  119 1   
   122  118  127 1   
   123  118  128 1   
   124  119  120 ar  
   125  119  121 ar  
   126  120  122 ar  
   127  120  129 1   
   128  121  123 ar  
   129  121  130 1   
   130  122  124 ar  
   131  122  131 1   
   132  123  124 ar  
   133  123  132 1   
   134  124  133 1   
   135  134  135 1   
   136  134  140 1   
   137  135  136 1   
   138  135  138 1   
   139  135  141 1   
   140  136  137 2   
   141  136  148 1   
   142  138  139 1   
   143  138  142 1   
   144  138  143 1   
   145  139  140 1   
   146  139  144 1   
   147  139  145 1   
   148  140  146 1   
   149  140  147 1   
   150  148  149 1   
   151  148  157 1   
   152  149  150 1   
   153  149  152 1   
   154  149  158 1   
   155  150  151 2   
   156  150  163 1   
   157  152  153 1   
   158  152  159 1   
   159  152  160 1   
   160  153  154 1   
   161  153  161 1   
   162  153  162 1   
   163  154  155 1   
   164  154  156 1   
   165  163  164 1   
   166  163  168 1   
   167  164  165 1   
   168  164  166 1   
   169  164  167 1   
   170  170  171 1   
   171  170  172 1   
   172  173  174 1   
   173  173  175 1   
   174  176  177 1   
   175  176  178 1   
@<TRIPOS>SUBSTRUCTURE
     1 MOL         1 TEMP              0 ****  ****    0 ROOT
