@<TRIPOS>MOLECULE
MOL
  181   177     1     0     0
SMALL
resp


@<TRIPOS>ATOM
      1 C1          2.2550   -0.8900    4.9150 c3        1 MOL     -0.358959
      2 C2          2.8460    0.1430    3.9150 c         1 MOL      0.730218
      3 O1          2.3010    0.2700    2.8140 o         1 MOL     -0.578787
      4 H1          3.0190   -1.6230    5.1730 hc        1 MOL      0.079307
      5 H2          1.9270   -0.3750    5.8190 hc        1 MOL      0.079307
      6 H3          1.4050   -1.3960    4.4570 hc        1 MOL      0.079307
      7 N1          3.8960    0.8770    4.2740 n         1 MOL     -0.505086
      8 C3          4.4100    1.9150    3.3740 c3        1 MOL      0.091087
      9 C4          5.4360    1.3590    2.3970 c         1 MOL      0.586586
     10 O2          5.8790    2.2110    1.5520 o         1 MOL     -0.546403
     11 C5          4.9530    3.1010    4.0870 c3        1 MOL     -0.248671
     12 C6          6.2720    2.9640    4.9090 c         1 MOL      0.736384
     13 O3          6.5580    1.8200    5.2170 o         1 MOL     -0.730986
     14 O4          6.9890    3.9600    5.0520 o         1 MOL     -0.730986
     15 H4          4.2180    0.8860    5.2390 hn        1 MOL      0.268090
     16 H5          3.5220    2.2620    2.8460 h1        1 MOL      0.052329
     17 H6          4.1870    3.4380    4.7770 hc        1 MOL      0.038475
     18 H7          5.1170    3.8710    3.3320 hc        1 MOL      0.038475
     19 N2          5.7520    0.1060    2.4590 n         1 MOL     -0.375472
     20 C7          6.3550   -0.7440    1.3840 c3        1 MOL      0.255003
     21 C8          5.5340   -0.7220    0.1190 c         1 MOL      0.353303
     22 O5          4.5240   -1.4190   -0.0980 o         1 MOL     -0.575918
     23 C9          7.8930   -0.6150    1.1780 c3        1 MOL     -0.369986
     24 H8          5.3190   -0.4140    3.2080 hn        1 MOL      0.226624
     25 H9          6.1040   -1.7540    1.7100 h1        1 MOL      0.027163
     26 H10         8.3150   -1.2510    0.4020 hc        1 MOL      0.100078
     27 H11         7.9430    0.4490    0.9860 hc        1 MOL      0.100078
     28 H12         8.4440   -0.7770    2.1150 hc        1 MOL      0.100078
     29 N3          5.9620    0.2200   -0.7300 n         1 MOL     -0.144920
     30 C10         5.4390    0.4820   -2.0300 c3        1 MOL      0.058274
     31 C11         5.4410    1.9880   -2.2860 c         1 MOL      0.531606
     32 O6          5.6180    2.3660   -3.4240 o         1 MOL     -0.548675
     33 C12         6.1650   -0.3250   -3.0690 c3        1 MOL     -0.254347
     34 C13         6.4270   -1.8150   -2.6550 c         1 MOL      0.778592
     35 O7          5.4630   -2.5860   -2.8200 o         1 MOL     -0.740421
     36 O8          7.5830   -2.2640   -2.3350 o         1 MOL     -0.740421
     37 H13         6.7520    0.8140   -0.5000 hn        1 MOL      0.153861
     38 H14         4.3670    0.2800   -2.0600 h1        1 MOL      0.059559
     39 H15         7.1730    0.0600   -3.2240 hc        1 MOL      0.045582
     40 H16         5.5220   -0.2710   -3.9500 hc        1 MOL      0.045582
     41 N4          5.1840    2.8570   -1.2920 n         1 MOL     -0.244344
     42 C14         4.8120    4.2390   -1.3720 c3        1 MOL     -0.183322
     43 C15         3.5210    4.4480   -2.1910 c         1 MOL      0.510027
     44 O9          3.2970    5.3870   -2.9590 o         1 MOL     -0.533343
     45 H17         4.9430    2.4550   -0.4010 hn        1 MOL      0.133281
     46 H18         5.6250    4.8920   -1.6950 h1        1 MOL      0.118733
     47 H19         4.6230    4.5630   -0.3550 h1        1 MOL      0.118733
     48 N5          2.6290    3.4420   -2.1850 n         1 MOL     -0.306833
     49 C16         1.2950    3.5980   -2.7570 c3        1 MOL      0.008942
     50 C17         0.5360    4.7270   -2.0840 c         1 MOL      0.363740
     51 O10         0.9090    5.3770   -1.1080 o         1 MOL     -0.498997
     52 C18         0.5160    2.2460   -2.5600 c3        1 MOL     -0.296780
     53 C19        -0.5510    2.0380   -3.6360 c         1 MOL      0.674966
     54 N6         -1.8540    2.0860   -3.2630 n         1 MOL     -0.781004
     55 O11        -0.2950    1.9290   -4.8360 o         1 MOL     -0.594540
     56 H20         2.8870    2.5900   -1.7110 hn        1 MOL      0.244338
     57 H21         1.3130    3.8470   -3.8250 h1        1 MOL      0.081731
     58 H22        -0.0320    2.2250   -1.6120 hc        1 MOL      0.127515
     59 H23         1.1990    1.3990   -2.4690 hc        1 MOL      0.127515
     60 H24        -2.0590    2.2000   -2.2780 hn        1 MOL      0.343477
     61 H25        -2.5560    1.9580   -3.9720 hn        1 MOL      0.343477
     62 N7         -0.5720    5.0540   -2.7330 n         1 MOL     -0.132282
     63 C20        -1.4490    6.1530   -2.4160 c3        1 MOL     -0.140787
     64 C21        -2.8210    5.7440   -2.0580 c         1 MOL      0.685723
     65 O12        -3.3980    4.8100   -2.5710 o         1 MOL     -0.544730
     66 H26        -0.8290    4.5120   -3.5410 hn        1 MOL      0.202538
     67 H27        -1.5130    6.7400   -3.3280 h1        1 MOL      0.071418
     68 H28        -1.0390    6.7460   -1.5990 h1        1 MOL      0.071418
     69 N8         -3.3700    6.3700   -0.9750 n         1 MOL     -0.652723
     70 C22        -4.7370    6.0040   -0.4060 c3        1 MOL     -0.063744
     71 C23        -4.8050    4.8220    0.5640 c         1 MOL      0.386769
     72 O13        -5.7620    4.6730    1.3450 o         1 MOL     -0.530989
     73 C24        -5.4190    7.2700    0.1080 c3        1 MOL      0.490447
     74 C25        -4.8560    7.5690    1.4000 c3        1 MOL     -0.338568
     75 O14        -5.2230    8.3770   -0.7660 oh        1 MOL     -0.627556
     76 H29        -2.8100    6.9770   -0.3980 hn        1 MOL      0.321524
     77 H30        -5.3860    5.6420   -1.2050 h1        1 MOL      0.128382
     78 H31        -6.4850    7.0940    0.2150 h1        1 MOL      0.001895
     79 H32        -4.3350    8.6840   -0.5670 ho        1 MOL      0.374412
     80 H33        -4.8400    8.6530    1.5330 hc        1 MOL      0.075803
     81 H34        -5.2440    7.0990    2.3070 hc        1 MOL      0.075803
     82 H35        -3.7990    7.2780    1.4110 hc        1 MOL      0.075803
     83 N9         -3.6960    4.0240    0.6080 n         1 MOL     -0.144992
     84 C26        -3.6110    2.7170    1.3160 c3        1 MOL     -0.125933
     85 C27        -2.7720    1.7950    0.3440 c         1 MOL      0.362283
     86 O15        -2.2060    2.2940   -0.6280 o         1 MOL     -0.396428
     87 C28        -3.0090    2.7630    2.7070 c3        1 MOL      0.108374
     88 C29        -1.5720    3.4060    2.6910 c3        1 MOL      0.008331
     89 C30        -3.7520    3.6370    3.7270 c3        1 MOL     -0.326948
     90 C31        -0.6640    3.1730    3.8780 c3        1 MOL     -0.221756
     91 H36        -2.9520    4.2210   -0.0440 hn        1 MOL      0.151903
     92 H37        -4.6240    2.3170    1.3410 h1        1 MOL      0.135383
     93 H38        -2.9790    1.7430    3.0780 hc        1 MOL      0.036971
     94 H39        -1.6110    4.4870    2.5350 hc        1 MOL      0.052962
     95 H40        -1.0180    3.0150    1.8290 hc        1 MOL      0.052962
     96 H41        -3.4590    4.6630    3.5360 hc        1 MOL      0.087300
     97 H42        -4.8100    3.3910    3.6340 hc        1 MOL      0.087300
     98 H43        -3.4650    3.3760    4.7510 hc        1 MOL      0.087300
     99 H44        -1.2090    3.4640    4.7710 hc        1 MOL      0.052833
    100 H45        -0.2310    2.1710    3.9610 hc        1 MOL      0.052833
    101 H46         0.2000    3.8300    3.7450 hc        1 MOL      0.052833
    102 N10        -2.6090    0.5050    0.6520 n         1 MOL     -0.403558
    103 C32        -1.7240   -0.4310   -0.0800 c3        1 MOL      0.212920
    104 C33        -2.4490   -1.5750   -0.7440 c         1 MOL      0.509068
    105 O16        -1.8770   -2.6610   -1.1070 o         1 MOL     -0.497672
    106 C34        -0.4840   -0.8600    0.7030 c3        1 MOL     -0.269966
    107 C35         0.6490   -1.3140   -0.2350 c         1 MOL      0.873202
    108 O17         0.6410   -0.9570   -1.4080 o         1 MOL     -0.753771
    109 O18         1.5060   -2.1000    0.2230 o         1 MOL     -0.753771
    110 H47        -3.0290    0.3100    1.5510 hn        1 MOL      0.248362
    111 H48        -1.2680    0.1210   -0.9020 h1        1 MOL      0.026217
    112 H49        -0.7750   -1.5870    1.4610 hc        1 MOL      0.069915
    113 H50        -0.1120    0.0380    1.2040 hc        1 MOL      0.069915
    114 N11        -3.7360   -1.3440   -1.0300 n         1 MOL     -0.541524
    115 C36        -4.6890   -2.3540   -1.6130 c3        1 MOL      0.505415
    116 C37        -4.8480   -3.5450   -0.6440 c         1 MOL     -0.035969
    117 O19        -5.0670   -3.3300    0.5470 o         1 MOL     -0.340277
    118 C38        -5.9450   -1.5380   -2.0670 c3        1 MOL     -0.333307
    119 C39        -6.5790   -0.8090   -0.9370 ca        1 MOL      0.159767
    120 C40        -7.2120   -1.5390    0.0530 ca        1 MOL     -0.177034
    121 C41        -6.4730    0.5920   -0.8890 ca        1 MOL     -0.177034
    122 C42        -7.8430   -0.8070    1.1020 ca        1 MOL     -0.142605
    123 C43        -7.0430    1.2780    0.2330 ca        1 MOL     -0.142605
    124 C44        -7.7280    0.5510    1.2130 ca        1 MOL     -0.087486
    125 H51        -4.1640   -0.5150   -0.6350 hn        1 MOL      0.245319
    126 H52        -4.1980   -2.6970   -2.5250 h1        1 MOL     -0.030031
    127 H53        -6.6320   -2.2770   -2.4880 hc        1 MOL      0.091932
    128 H54        -5.6140   -0.8190   -2.8180 hc        1 MOL      0.091932
    129 H55        -7.3930   -2.6070    0.1030 ha        1 MOL      0.145363
    130 H56        -5.9420    1.2000   -1.6020 ha        1 MOL      0.145363
    131 H57        -8.2520   -1.3870    1.9100 ha        1 MOL      0.117193
    132 H58        -6.8690    2.3400    0.3680 ha        1 MOL      0.117193
    133 H59        -8.1880    0.9740    2.0920 ha        1 MOL      0.102845
    134 N12        -4.8630   -4.7930   -1.0410 n         1 MOL      0.028838
    135 C45        -5.0170   -5.9420   -0.1970 c3        1 MOL      0.321281
    136 C46        -4.0020   -6.0250    0.9840 c         1 MOL      0.231605
    137 O20        -4.2910   -6.5520    2.0520 o         1 MOL     -0.523193
    138 C47        -4.8280   -7.1520   -1.0990 c3        1 MOL     -0.240713
    139 C48        -5.2930   -6.6320   -2.4430 c3        1 MOL     -0.048086
    140 C49        -4.7150   -5.2530   -2.4560 c3        1 MOL     -0.174743
    141 H60        -6.0020   -5.8890    0.2550 h1        1 MOL     -0.011261
    142 H61        -3.7550   -7.3010   -1.2080 hc        1 MOL      0.099086
    143 H62        -5.3900   -7.9400   -0.6090 hc        1 MOL      0.099086
    144 H63        -4.9410   -7.2720   -3.2430 hc        1 MOL      0.035953
    145 H64        -6.3700   -6.4430   -2.4550 hc        1 MOL      0.035953
    146 H65        -3.6540   -5.4530   -2.6150 h1        1 MOL      0.110268
    147 H66        -5.1790   -4.5890   -3.1840 h1        1 MOL      0.110268
    148 N13        -2.8470   -5.4400    0.8830 n         1 MOL     -0.218684
    149 C50        -1.9160   -5.2940    1.9790 c3        1 MOL     -0.013708
    150 C51        -2.3250   -4.4910    3.2260 c         1 MOL      0.418614
    151 O21        -1.7830   -4.6840    4.3090 o         1 MOL     -0.527432
    152 C52        -0.4920   -4.9160    1.4600 c3        1 MOL      0.003435
    153 C53         0.0630   -5.8360    0.4800 c3        1 MOL     -0.246637
    154 C54         1.3160   -5.2760   -0.2090 c         1 MOL      0.786234
    155 O22         2.3530   -4.8650    0.4490 o         1 MOL     -0.748629
    156 O23         1.3310   -5.3400   -1.4470 o         1 MOL     -0.748629
    157 H67        -2.6510   -4.9430    0.0230 hn        1 MOL      0.223115
    158 H68        -1.7580   -6.3040    2.3570 h1        1 MOL      0.097382
    159 H69         0.1170   -4.8940    2.3600 hc        1 MOL      0.047293
    160 H70        -0.5340   -3.9160    1.0330 hc        1 MOL      0.047293
    161 H71        -0.5810   -6.2270   -0.3030 hc        1 MOL      0.036634
    162 H72         0.3700   -6.6650    1.1280 hc        1 MOL      0.036634
    163 N14        -3.4750   -3.7400    3.0540 n         1 MOL     -0.045102
    164 C55        -4.0500   -2.8350    4.0580 c3        1 MOL     -0.244211
    165 H73        -4.7890   -2.1900    3.5840 h1        1 MOL      0.089623
    166 H74        -4.5290   -3.4200    4.8430 h1        1 MOL      0.089623
    167 H75        -3.2590   -2.2230    4.4910 h1        1 MOL      0.089623
    168 H76        -3.8640   -3.7890    2.1180 hn        1 MOL      0.070345
    169 Ca1         3.5060   -3.5660   -1.4090 Ca        1 MOL      1.782565
    170 O24         5.6060   -4.1970    0.0810 oh        1 MOL     -0.825101
    171 H77         6.5410   -3.9940    0.1390 ho        1 MOL      0.398635
    172 H78         5.4820   -4.9020    0.7240 ho        1 MOL      0.398635
    173 O25         2.6800   -1.4230   -2.9750 oh        1 MOL     -0.825101
    174 H79         2.7380   -0.7170   -3.6120 ho        1 MOL      0.398635
    175 H80         1.8620   -1.2610   -2.5010 ho        1 MOL      0.398635
    176 O26         4.4980   -6.1210   -1.6690 oh        1 MOL     -0.825101
    177 H81         5.4370   -5.9740   -1.6560 ho        1 MOL      0.398635
    178 H82         4.4050   -7.0710   -1.7890 ho        1 MOL      0.398635
    179 O27         3.0080   -4.2830   -3.9420 oh        1 MOL     -0.825101
    180 H83         2.1140   -4.0930   -4.2260 ho        1 MOL      0.398635
    181 H84         3.3430   -4.9120   -4.5680 ho        1 MOL      0.398635
@<TRIPOS>BOND
     1    1    2 1   
     2    1    4 1   
     3    1    5 1   
     4    1    6 1   
     5    2    3 2   
     6    2    7 1   
     7    7    8 1   
     8    7   15 1   
     9    8    9 1   
    10    8   11 1   
    11    8   16 1   
    12    9   10 2   
    13    9   19 1   
    14   11   12 1   
    15   11   17 1   
    16   11   18 1   
    17   12   13 1   
    18   12   14 1   
    19   19   20 1   
    20   19   24 1   
    21   20   21 1   
    22   20   23 1   
    23   20   25 1   
    24   21   22 2   
    25   21   29 1   
    26   23   26 1   
    27   23   27 1   
    28   23   28 1   
    29   29   30 1   
    30   29   37 1   
    31   30   31 1   
    32   30   33 1   
    33   30   38 1   
    34   31   32 2   
    35   31   41 1   
    36   33   34 1   
    37   33   39 1   
    38   33   40 1   
    39   34   35 1   
    40   34   36 1   
    41   41   42 1   
    42   41   45 1   
    43   42   43 1   
    44   42   46 1   
    45   42   47 1   
    46   43   44 2   
    47   43   48 1   
    48   48   49 1   
    49   48   56 1   
    50   49   50 1   
    51   49   52 1   
    52   49   57 1   
    53   50   51 2   
    54   50   62 1   
    55   52   53 1   
    56   52   58 1   
    57   52   59 1   
    58   53   54 1   
    59   53   55 2   
    60   54   60 1   
    61   54   61 1   
    62   62   63 1   
    63   62   66 1   
    64   63   64 1   
    65   63   67 1   
    66   63   68 1   
    67   64   65 2   
    68   64   69 1   
    69   69   70 1   
    70   69   76 1   
    71   70   71 1   
    72   70   73 1   
    73   70   77 1   
    74   71   72 2   
    75   71   83 1   
    76   73   74 1   
    77   73   75 1   
    78   73   78 1   
    79   74   80 1   
    80   74   81 1   
    81   74   82 1   
    82   75   79 1   
    83   83   84 1   
    84   83   91 1   
    85   84   85 1   
    86   84   87 1   
    87   84   92 1   
    88   85   86 2   
    89   85  102 1   
    90   87   88 1   
    91   87   89 1   
    92   87   93 1   
    93   88   90 1   
    94   88   94 1   
    95   88   95 1   
    96   89   96 1   
    97   89   97 1   
    98   89   98 1   
    99   90   99 1   
   100   90  100 1   
   101   90  101 1   
   102  102  103 1   
   103  102  110 1   
   104  103  104 1   
   105  103  106 1   
   106  103  111 1   
   107  104  105 2   
   108  104  114 1   
   109  106  107 1   
   110  106  112 1   
   111  106  113 1   
   112  107  108 1   
   113  107  109 1   
   114  114  115 1   
   115  114  125 1   
   116  115  116 1   
   117  115  118 1   
   118  115  126 1   
   119  116  117 2   
   120  116  134 1   
   121  118  119 1   
   122  118  127 1   
   123  118  128 1   
   124  119  120 ar  
   125  119  121 ar  
   126  120  122 ar  
   127  120  129 1   
   128  121  123 ar  
   129  121  130 1   
   130  122  124 ar  
   131  122  131 1   
   132  123  124 ar  
   133  123  132 1   
   134  124  133 1   
   135  134  135 1   
   136  134  140 1   
   137  135  136 1   
   138  135  138 1   
   139  135  141 1   
   140  136  137 2   
   141  136  148 1   
   142  138  139 1   
   143  138  142 1   
   144  138  143 1   
   145  139  140 1   
   146  139  144 1   
   147  139  145 1   
   148  140  146 1   
   149  140  147 1   
   150  148  149 1   
   151  148  157 1   
   152  149  150 1   
   153  149  152 1   
   154  149  158 1   
   155  150  151 2   
   156  150  163 1   
   157  152  153 1   
   158  152  159 1   
   159  152  160 1   
   160  153  154 1   
   161  153  161 1   
   162  153  162 1   
   163  154  155 1   
   164  154  156 1   
   165  163  164 1   
   166  163  168 1   
   167  164  165 1   
   168  164  166 1   
   169  164  167 1   
   170  170  171 1   
   171  170  172 1   
   172  173  174 1   
   173  173  175 1   
   174  176  177 1   
   175  176  178 1   
   176  179  180 1   
   177  179  181 1   
@<TRIPOS>SUBSTRUCTURE
     1 MOL         1 TEMP              0 ****  ****    0 ROOT
