@<TRIPOS>MOLECULE
MOL
  181   177     1     0     0
SMALL
resp


@<TRIPOS>ATOM
      1 C1         -4.2260    1.5960    3.5270 c3        1 MOL     -0.365965
      2 C2         -5.1500    0.4080    3.2130 c         1 MOL      0.621412
      3 O1         -4.6610   -0.7350    3.0910 o         1 MOL     -0.602591
      4 H1         -4.6910    2.2280    4.2830 hc        1 MOL      0.101171
      5 H2         -3.2710    1.2260    3.9010 hc        1 MOL      0.101171
      6 H3         -4.0610    2.1780    2.6190 hc        1 MOL      0.101171
      7 N1         -6.4470    0.6330    2.9300 n         1 MOL     -0.414499
      8 C3         -7.3980   -0.4130    2.6520 c3        1 MOL      0.024583
      9 C4         -7.4400   -0.8000    1.2000 c         1 MOL      0.611760
     10 O2         -7.1550   -0.0300    0.2610 o         1 MOL     -0.506509
     11 C5         -8.8510    0.0680    3.0770 c3        1 MOL     -0.135424
     12 C6         -9.2360    1.3860    2.4560 c         1 MOL      0.764363
     13 O3         -8.7060    2.4920    2.8090 o         1 MOL     -0.725388
     14 O4        -10.1490    1.3330    1.6690 o         1 MOL     -0.725388
     15 H4         -6.8140    1.5710    2.9260 hn        1 MOL      0.232909
     16 H5         -7.2010   -1.3320    3.2050 h1        1 MOL      0.050053
     17 H6         -8.8670    0.3470    4.1290 hc        1 MOL     -0.002769
     18 H7         -9.5630   -0.7460    2.9490 hc        1 MOL     -0.002769
     19 N2         -7.6650   -2.0680    0.8660 n         1 MOL     -0.666832
     20 C7         -7.1570   -2.6160   -0.3850 c3        1 MOL      0.453970
     21 C8         -5.6120   -2.6370   -0.4060 c         1 MOL      0.470424
     22 O5         -4.8890   -2.6290    0.5370 o         1 MOL     -0.506582
     23 C9         -7.7070   -3.9990   -0.5660 c3        1 MOL     -0.211639
     24 H8         -7.8940   -2.6990    1.6190 hn        1 MOL      0.311314
     25 H9         -7.3700   -1.9840   -1.2460 h1        1 MOL     -0.038396
     26 H10        -8.7960   -3.9800   -0.5080 hc        1 MOL      0.038947
     27 H11        -7.4280   -4.3830   -1.5560 hc        1 MOL      0.038947
     28 H12        -7.2590   -4.6650    0.1660 hc        1 MOL      0.038947
     29 N3         -5.1190   -2.6510   -1.6380 n         1 MOL     -0.532937
     30 C10        -3.7660   -2.8670   -1.9710 c3        1 MOL      0.109626
     31 C11        -3.4110   -4.3770   -1.8000 c         1 MOL      0.638298
     32 O6         -4.3440   -5.2370   -1.5990 o         1 MOL     -0.532570
     33 C12        -3.4380   -2.1010   -3.3230 c3        1 MOL     -0.437283
     34 C13        -3.8400   -0.6200   -3.2880 c         1 MOL      0.825587
     35 O7         -4.9670   -0.3310   -3.6720 o         1 MOL     -0.721142
     36 O8         -3.0850    0.1930   -2.6350 o         1 MOL     -0.721142
     37 H13        -5.7660   -2.4620   -2.3940 hn        1 MOL      0.319263
     38 H14        -3.1800   -2.4770   -1.1380 h1        1 MOL      0.074901
     39 H15        -3.9740   -2.6490   -4.1100 hc        1 MOL      0.090762
     40 H16        -2.3520   -2.1710   -3.3110 hc        1 MOL      0.090762
     41 N4         -2.1010   -4.8050   -1.8820 n         1 MOL     -0.600509
     42 C14        -1.7270   -6.2610   -2.0590 c3        1 MOL     -0.110290
     43 C15        -0.1920   -6.5550   -2.0810 c         1 MOL      0.626746
     44 O9          0.0190   -7.7110   -1.9970 o         1 MOL     -0.567822
     45 H17        -1.4180   -4.0580   -1.9840 hn        1 MOL      0.293999
     46 H18        -2.3270   -6.7140   -2.8480 h1        1 MOL      0.117992
     47 H19        -2.1280   -6.7280   -1.1550 h1        1 MOL      0.117992
     48 N5          0.6720   -5.6460   -2.3390 n         1 MOL     -0.447365
     49 C16         2.1130   -5.9020   -2.5480 c3        1 MOL      0.040060
     50 C17         3.0220   -5.9130   -1.3530 c         1 MOL      0.494013
     51 O10         4.2250   -6.0680   -1.5180 o         1 MOL     -0.486257
     52 C18         2.5140   -5.0230   -3.7480 c3        1 MOL     -0.354952
     53 C19         1.6610   -5.0500   -4.9900 c         1 MOL      0.721940
     54 N6          1.6220   -3.8960   -5.6090 n         1 MOL     -0.769902
     55 O11         1.0840   -6.0330   -5.3780 o         1 MOL     -0.536577
     56 H20         0.4890   -4.6620   -2.2070 hn        1 MOL      0.301416
     57 H21         2.1200   -6.9750   -2.7440 h1        1 MOL      0.127770
     58 H22         3.4960   -5.2830   -4.1520 hc        1 MOL      0.110573
     59 H23         2.5460   -4.0060   -3.3450 hc        1 MOL      0.110573
     60 H24         2.1300   -3.1550   -5.1470 hn        1 MOL      0.349527
     61 H25         1.3960   -3.7570   -6.5840 hn        1 MOL      0.349527
     62 N7          2.5390   -5.9610   -0.1360 n         1 MOL     -0.439842
     63 C20         3.3840   -6.0400    1.0770 c3        1 MOL     -0.016044
     64 C21         4.0450   -4.7240    1.4280 c         1 MOL      0.376008
     65 O12         4.2040   -3.8510    0.5350 o         1 MOL     -0.332439
     66 H26         1.5460   -6.0040    0.0090 hn        1 MOL      0.296510
     67 H27         4.1890   -6.7560    0.8950 h1        1 MOL      0.075487
     68 H28         2.8060   -6.3790    1.9340 h1        1 MOL      0.075487
     69 N8          4.5900   -4.7190    2.6320 n         1 MOL     -0.322174
     70 C22         5.6150   -3.6740    3.0530 c3        1 MOL     -0.183593
     71 C23         4.9760   -2.3640    3.3080 c         1 MOL      0.447245
     72 O13         5.7040   -1.3530    3.2510 o         1 MOL     -0.559914
     73 C24         6.4000   -4.0580    4.3330 c3        1 MOL      0.441164
     74 C25         5.8900   -3.6600    5.6670 c3        1 MOL     -0.449392
     75 O14         6.3720   -5.5110    4.4170 oh        1 MOL     -0.613917
     76 H29         4.2390   -5.3660    3.3260 hn        1 MOL      0.235899
     77 H30         6.4180   -3.5600    2.3350 h1        1 MOL      0.168827
     78 H31         7.4580   -3.8040    4.2620 h1        1 MOL      0.058256
     79 H32         5.4710   -5.6810    4.6920 ho        1 MOL      0.356478
     80 H33         6.6310   -4.1460    6.3010 hc        1 MOL      0.118188
     81 H34         5.9940   -2.6230    5.9580 hc        1 MOL      0.118188
     82 H35         4.9010   -4.0490    5.8750 hc        1 MOL      0.118188
     83 N9          3.6760   -2.2690    3.5510 n         1 MOL     -0.363563
     84 C26         2.8380   -1.0820    3.6900 c3        1 MOL      0.113217
     85 C27         1.9040   -0.7080    2.4960 c         1 MOL      0.347494
     86 O15         0.9850   -1.3960    2.0890 o         1 MOL     -0.488289
     87 C28         1.9390   -1.1070    4.9630 c3        1 MOL     -0.088991
     88 C29         2.8860   -1.1720    6.2110 c3        1 MOL     -0.090780
     89 C30         0.9350    0.0500    5.0450 c3        1 MOL      0.210248
     90 C31         3.8010   -0.0250    6.5640 c3        1 MOL     -0.040745
     91 H36         3.2280   -3.0840    3.9720 hn        1 MOL      0.242719
     92 H37         3.5120   -0.2300    3.7410 h1        1 MOL      0.115413
     93 H38         1.2950   -1.9750    5.0570 hc        1 MOL      0.039163
     94 H39         3.5450   -2.0350    6.1510 hc        1 MOL      0.027898
     95 H40         2.3540   -1.4110    7.1320 hc        1 MOL      0.027898
     96 H41         0.0730   -0.0710    4.3910 hc        1 MOL     -0.025904
     97 H42         0.4960    0.0680    6.0450 hc        1 MOL     -0.025904
     98 H43         1.4180    1.0020    4.8220 hc        1 MOL     -0.025904
     99 H44         4.4440   -0.2610    7.4110 hc        1 MOL      0.005110
    100 H45         4.3880    0.3120    5.7070 hc        1 MOL      0.005110
    101 H46         3.0360    0.7080    6.8070 hc        1 MOL      0.005110
    102 N10         2.1680    0.5270    2.0030 n         1 MOL     -0.378808
    103 C32         1.3550    1.1740    0.9990 c3        1 MOL      0.063317
    104 C33         2.1730    2.0270   -0.1000 c         1 MOL      0.465444
    105 O16         1.5670    2.6370   -0.9150 o         1 MOL     -0.363331
    106 C34         0.1870    2.0010    1.6630 c3        1 MOL      0.059201
    107 C35        -1.0640    2.0100    0.7530 c         1 MOL      0.636773
    108 O17        -0.9970    1.5290   -0.4010 o         1 MOL     -0.708846
    109 O18        -2.0640    2.7260    1.1540 o         1 MOL     -0.708846
    110 H47         3.0050    0.9730    2.3470 hn        1 MOL      0.230854
    111 H48         0.9280    0.4250    0.3360 h1        1 MOL      0.122981
    112 H49         0.4380    3.0390    1.8650 hc        1 MOL     -0.043637
    113 H50        -0.0810    1.5480    2.6260 hc        1 MOL     -0.043637
    114 N11         3.5250    1.9000   -0.1180 n         1 MOL     -0.606330
    115 C36         4.2240    2.5320   -1.2590 c3        1 MOL      0.637323
    116 C37         4.4270    4.0340   -1.0300 c         1 MOL      0.012953
    117 O19         4.5640    4.5580    0.0730 o         1 MOL     -0.438588
    118 C38         5.5800    1.8310   -1.4100 c3        1 MOL     -0.259668
    119 C39         5.5790    0.5000   -2.1330 ca        1 MOL      0.164540
    120 C40         5.6300    0.4180   -3.5250 ca        1 MOL     -0.277948
    121 C41         5.4890   -0.7080   -1.3970 ca        1 MOL     -0.277948
    122 C42         5.6340   -0.9370   -4.0570 ca        1 MOL     -0.024255
    123 C43         5.4110   -2.0240   -1.9790 ca        1 MOL     -0.024255
    124 C44         5.5310   -2.1160   -3.3440 ca        1 MOL     -0.133816
    125 H51         4.0570    1.4710    0.6240 hn        1 MOL      0.297389
    126 H52         3.6410    2.3540   -2.1690 h1        1 MOL     -0.076500
    127 H53         6.0580    1.7870   -0.4350 hc        1 MOL      0.075425
    128 H54         6.2540    2.4380   -2.0080 hc        1 MOL      0.075425
    129 H55         5.6870    1.2380   -4.2130 ha        1 MOL      0.148175
    130 H56         5.6590   -0.6840   -0.3320 ha        1 MOL      0.148175
    131 H57         5.7420   -1.0060   -5.1260 ha        1 MOL      0.061543
    132 H58         5.3580   -2.9030   -1.3470 ha        1 MOL      0.061543
    133 H59         5.4710   -3.0470   -3.8830 ha        1 MOL      0.092658
    134 N12         4.5190    4.8130   -2.1430 n         1 MOL      0.026224
    135 C45         4.5820    6.2500   -2.0080 c3        1 MOL      0.322207
    136 C46         3.3240    6.9250   -1.3130 c         1 MOL      0.081063
    137 O20         3.4140    8.1280   -0.9680 o         1 MOL     -0.478434
    138 C47         4.9740    6.8500   -3.4090 c3        1 MOL     -0.189623
    139 C48         5.6070    5.6140   -4.0610 c3        1 MOL     -0.132682
    140 C49         4.7680    4.4270   -3.5120 c3        1 MOL     -0.199031
    141 H60         5.4300    6.4570   -1.3540 h1        1 MOL      0.029923
    142 H61         4.0990    7.0590   -4.0270 hc        1 MOL      0.085575
    143 H62         5.6660    7.6750   -3.2380 hc        1 MOL      0.085575
    144 H63         5.4720    5.6090   -5.1390 hc        1 MOL      0.052782
    145 H64         6.6380    5.6830   -3.6950 hc        1 MOL      0.052782
    146 H65         3.8580    4.4470   -4.1120 h1        1 MOL      0.111125
    147 H66         5.4050    3.5440   -3.6000 h1        1 MOL      0.111125
    148 N13         2.1990    6.2190   -0.9860 n         1 MOL      0.032921
    149 C50         1.1360    6.7420   -0.0920 c3        1 MOL     -0.174182
    150 C51         1.5060    6.8140    1.3820 c         1 MOL      0.460288
    151 O21         1.0450    7.7770    2.0410 o         1 MOL     -0.559939
    152 C52        -0.0940    5.8390   -0.1940 c3        1 MOL      0.009719
    153 C53        -0.6140    5.7710   -1.7040 c3        1 MOL     -0.100444
    154 C54        -1.7730    4.7250   -1.8990 c         1 MOL      0.701943
    155 O22        -1.5610    3.6540   -2.4780 o         1 MOL     -0.745659
    156 O23        -2.8400    4.9670   -1.3110 o         1 MOL     -0.745659
    157 H67         2.0600    5.3290   -1.4390 hn        1 MOL      0.089915
    158 H68         0.7950    7.7090   -0.4710 h1        1 MOL      0.124872
    159 H69        -0.8480    6.2590    0.4750 hc        1 MOL      0.051910
    160 H70         0.0780    4.8320    0.1660 hc        1 MOL      0.051910
    161 H71         0.2040    5.5250   -2.3920 hc        1 MOL     -0.002433
    162 H72        -1.0310    6.7250   -2.0310 hc        1 MOL     -0.002433
    163 N14         2.4360    5.9720    1.8250 n         1 MOL     -0.048397
    164 C55         2.9300    5.8670    3.2220 c3        1 MOL     -0.247665
    165 H73         2.8200    6.8300    3.7190 h1        1 MOL      0.089026
    166 H74         2.3510    5.1150    3.7570 h1        1 MOL      0.089026
    167 H75         3.9820    5.5800    3.2160 h1        1 MOL      0.089026
    168 H76         2.9030    5.4210    1.1210 hn        1 MOL      0.124790
    169 Ca1        -3.3810    2.2980   -1.1510 Ca        1 MOL      1.771396
    170 O24        -3.3320   -0.0370    0.5250 oh        1 MOL     -0.874014
    171 H77        -2.6070   -0.6500    0.4770 ho        1 MOL      0.422916
    172 H78        -3.9160   -0.4130    1.1850 ho        1 MOL      0.422916
    173 O25        -4.9120    3.3930   -3.1500 oh        1 MOL     -0.874014
    174 H79        -5.3550    4.1520   -2.7420 ho        1 MOL      0.422916
    175 H80        -5.3790    3.2660   -3.9720 ho        1 MOL      0.422916
    176 O26        -5.8450    1.1650   -1.6000 oh        1 MOL     -0.874014
    177 H81        -6.3520    0.5600   -1.0670 ho        1 MOL      0.422916
    178 H82        -5.5810    0.6560   -2.3660 ho        1 MOL      0.422916
    179 O27        -5.3110    3.7750    0.1910 oh        1 MOL     -0.874014
    180 H83        -5.1570    4.3850    0.9130 ho        1 MOL      0.422916
    181 H84        -6.2610    3.7800    0.0720 ho        1 MOL      0.422916
@<TRIPOS>BOND
     1    1    2 1   
     2    1    4 1   
     3    1    5 1   
     4    1    6 1   
     5    2    3 2   
     6    2    7 1   
     7    7    8 1   
     8    7   15 1   
     9    8    9 1   
    10    8   11 1   
    11    8   16 1   
    12    9   10 2   
    13    9   19 1   
    14   11   12 1   
    15   11   17 1   
    16   11   18 1   
    17   12   13 1   
    18   12   14 1   
    19   19   20 1   
    20   19   24 1   
    21   20   21 1   
    22   20   23 1   
    23   20   25 1   
    24   21   22 2   
    25   21   29 1   
    26   23   26 1   
    27   23   27 1   
    28   23   28 1   
    29   29   30 1   
    30   29   37 1   
    31   30   31 1   
    32   30   33 1   
    33   30   38 1   
    34   31   32 2   
    35   31   41 1   
    36   33   34 1   
    37   33   39 1   
    38   33   40 1   
    39   34   35 1   
    40   34   36 1   
    41   41   42 1   
    42   41   45 1   
    43   42   43 1   
    44   42   46 1   
    45   42   47 1   
    46   43   44 2   
    47   43   48 1   
    48   48   49 1   
    49   48   56 1   
    50   49   50 1   
    51   49   52 1   
    52   49   57 1   
    53   50   51 2   
    54   50   62 1   
    55   52   53 1   
    56   52   58 1   
    57   52   59 1   
    58   53   54 1   
    59   53   55 2   
    60   54   60 1   
    61   54   61 1   
    62   62   63 1   
    63   62   66 1   
    64   63   64 1   
    65   63   67 1   
    66   63   68 1   
    67   64   65 2   
    68   64   69 1   
    69   69   70 1   
    70   69   76 1   
    71   70   71 1   
    72   70   73 1   
    73   70   77 1   
    74   71   72 2   
    75   71   83 1   
    76   73   74 1   
    77   73   75 1   
    78   73   78 1   
    79   74   80 1   
    80   74   81 1   
    81   74   82 1   
    82   75   79 1   
    83   83   84 1   
    84   83   91 1   
    85   84   85 1   
    86   84   87 1   
    87   84   92 1   
    88   85   86 2   
    89   85  102 1   
    90   87   88 1   
    91   87   89 1   
    92   87   93 1   
    93   88   90 1   
    94   88   94 1   
    95   88   95 1   
    96   89   96 1   
    97   89   97 1   
    98   89   98 1   
    99   90   99 1   
   100   90  100 1   
   101   90  101 1   
   102  102  103 1   
   103  102  110 1   
   104  103  104 1   
   105  103  106 1   
   106  103  111 1   
   107  104  105 2   
   108  104  114 1   
   109  106  107 1   
   110  106  112 1   
   111  106  113 1   
   112  107  108 1   
   113  107  109 1   
   114  114  115 1   
   115  114  125 1   
   116  115  116 1   
   117  115  118 1   
   118  115  126 1   
   119  116  117 2   
   120  116  134 1   
   121  118  119 1   
   122  118  127 1   
   123  118  128 1   
   124  119  120 ar  
   125  119  121 ar  
   126  120  122 ar  
   127  120  129 1   
   128  121  123 ar  
   129  121  130 1   
   130  122  124 ar  
   131  122  131 1   
   132  123  124 ar  
   133  123  132 1   
   134  124  133 1   
   135  134  135 1   
   136  134  140 1   
   137  135  136 1   
   138  135  138 1   
   139  135  141 1   
   140  136  137 2   
   141  136  148 1   
   142  138  139 1   
   143  138  142 1   
   144  138  143 1   
   145  139  140 1   
   146  139  144 1   
   147  139  145 1   
   148  140  146 1   
   149  140  147 1   
   150  148  149 1   
   151  148  157 1   
   152  149  150 1   
   153  149  152 1   
   154  149  158 1   
   155  150  151 2   
   156  150  163 1   
   157  152  153 1   
   158  152  159 1   
   159  152  160 1   
   160  153  154 1   
   161  153  161 1   
   162  153  162 1   
   163  154  155 1   
   164  154  156 1   
   165  163  164 1   
   166  163  168 1   
   167  164  165 1   
   168  164  166 1   
   169  164  167 1   
   170  170  171 1   
   171  170  172 1   
   172  173  174 1   
   173  173  175 1   
   174  176  177 1   
   175  176  178 1   
   176  179  180 1   
   177  179  181 1   
@<TRIPOS>SUBSTRUCTURE
     1 MOL         1 TEMP              0 ****  ****    0 ROOT
