@<TRIPOS>MOLECULE
MOL
  185   180     1     0     0
SMALL
resp


@<TRIPOS>ATOM
      1 C1         -6.6870    2.7300   -2.3460 c3        1 MOL     -0.468497
      2 C2         -7.2390    1.8770   -1.2050 c         1 MOL      0.651652
      3 O1         -6.4880    1.4390   -0.2910 o         1 MOL     -0.496725
      4 H1         -5.6310    2.5020   -2.4920 hc        1 MOL      0.125018
      5 H2         -7.2360    2.5120   -3.2620 hc        1 MOL      0.125018
      6 H3         -6.7990    3.7860   -2.0980 hc        1 MOL      0.125018
      7 N1         -8.5660    1.8000   -1.1170 n         1 MOL     -0.601659
      8 C3         -9.2630    1.1720    0.0590 c3        1 MOL      0.084832
      9 C4         -8.7780   -0.2870    0.3090 c         1 MOL      0.587570
     10 O2         -8.9570   -0.7510    1.4210 o         1 MOL     -0.522726
     11 C5         -9.2570    2.0490    1.3790 c3        1 MOL     -0.250781
     12 C6         -9.4030    3.5180    1.1260 c         1 MOL      0.816647
     13 O3         -8.9450    4.3480    1.9780 o         1 MOL     -0.672330
     14 O4        -10.0750    3.9730    0.1760 o         1 MOL     -0.672330
     15 H4         -9.1160    2.3080   -1.8080 hn        1 MOL      0.325478
     16 H5        -10.3320    1.0590   -0.1670 h1        1 MOL      0.068943
     17 H6         -8.3780    1.8790    2.0030 hc        1 MOL      0.083422
     18 H7        -10.2050    1.8720    1.8950 hc        1 MOL      0.083422
     19 N2         -8.3860   -1.0080   -0.7410 n         1 MOL     -0.772575
     20 C7         -8.1060   -2.4370   -0.7380 c3        1 MOL      0.353337
     21 C8         -6.6530   -2.7750   -0.4900 c         1 MOL      0.390753
     22 O5         -6.2620   -3.8960   -0.7910 o         1 MOL     -0.579022
     23 C9         -8.7780   -3.2000   -1.9320 c3        1 MOL      0.068109
     24 C10       -10.2960   -3.1370   -2.0410 c3        1 MOL     -0.070555
     25 C11       -10.8680   -3.9820   -3.1820 c3        1 MOL     -0.021157
     26 C12       -12.4010   -3.9460   -3.2210 c3        1 MOL      0.034111
     27 N3        -12.9000   -4.6140   -4.4040 n4        1 MOL     -0.091293
     28 H8         -8.4620   -0.4880   -1.6010 hn        1 MOL      0.329076
     29 H9         -8.6570   -2.8180    0.1120 h1        1 MOL      0.033408
     30 H10        -8.5230   -4.2340   -1.7540 hc        1 MOL     -0.013956
     31 H11        -8.3570   -2.9090   -2.8980 hc        1 MOL     -0.013956
     32 H12       -10.5100   -2.0730   -2.1610 hc        1 MOL      0.031407
     33 H13       -10.6620   -3.5510   -1.1010 hc        1 MOL      0.031407
     34 H14       -10.5770   -5.0270   -3.0360 hc        1 MOL      0.031561
     35 H15       -10.5270   -3.6380   -4.1550 hc        1 MOL      0.031561
     36 H16       -12.7210   -2.9070   -3.2800 hx        1 MOL      0.063148
     37 H17       -12.8370   -4.4400   -2.3540 hx        1 MOL      0.063148
     38 H18       -12.6540   -4.1040   -5.2390 hn        1 MOL      0.189292
     39 H19       -12.5730   -5.5660   -4.4680 hn        1 MOL      0.189292
     40 H20       -13.9020   -4.7140   -4.4110 hn        1 MOL      0.189292
     41 N4         -5.8040   -1.9060    0.0020 n         1 MOL     -0.363759
     42 C13        -4.4280   -2.1730    0.5780 c3        1 MOL      0.101729
     43 C14        -4.3560   -1.8140    2.0620 c         1 MOL      0.482709
     44 O6         -4.7110   -0.7020    2.4320 o         1 MOL     -0.456160
     45 C15        -3.5150   -1.3060   -0.3770 c3        1 MOL     -0.019645
     46 C16        -2.0290   -1.1510   -0.0370 c         1 MOL      0.769492
     47 O7         -1.3530   -0.2460   -0.5830 o         1 MOL     -0.808826
     48 O8         -1.4600   -1.8450    0.8380 o         1 MOL     -0.808826
     49 H21        -6.2090   -1.0440    0.3390 hn        1 MOL      0.275094
     50 H22        -4.1300   -3.2070    0.3980 h1        1 MOL      0.062655
     51 H23        -3.9760   -0.3230   -0.4530 hc        1 MOL     -0.004205
     52 H24        -3.4940   -1.7440   -1.3790 hc        1 MOL     -0.004205
     53 N5         -3.9420   -2.6940    2.9220 n         1 MOL     -0.367231
     54 C17        -4.0590   -2.4810    4.3610 c3        1 MOL     -0.113288
     55 C18        -3.1630   -1.2930    4.8630 c         1 MOL      0.508995
     56 O9         -3.5610   -0.6640    5.8320 o         1 MOL     -0.528442
     57 H25        -3.6530   -3.6300    2.6960 hn        1 MOL      0.275142
     58 H26        -3.6480   -3.3080    4.9430 h1        1 MOL      0.097091
     59 H27        -5.1030   -2.4210    4.6770 h1        1 MOL      0.097091
     60 N6         -2.1210   -0.9050    4.1130 n         1 MOL     -0.459587
     61 C19        -1.3310    0.3020    4.4900 c3        1 MOL      0.199930
     62 C20        -1.4520    1.4610    3.5270 c         1 MOL      0.554638
     63 O10        -1.5460    2.5680    4.0220 o         1 MOL     -0.558417
     64 C21         0.1540   -0.0650    4.7750 c3        1 MOL     -0.374376
     65 C22         0.7910   -0.8070    3.6230 c         1 MOL      0.560224
     66 N7          1.5490   -1.8430    3.8850 n         1 MOL     -0.688650
     67 O11         0.7220   -0.4360    2.4630 o         1 MOL     -0.583784
     68 H28        -1.9250   -1.4050    3.2510 hn        1 MOL      0.327747
     69 H29        -1.6600    0.7880    5.4070 h1        1 MOL      0.067526
     70 H30         0.2560   -0.7360    5.6360 hc        1 MOL      0.118411
     71 H31         0.7070    0.8630    4.9290 hc        1 MOL      0.118411
     72 H32         1.9390   -1.9500    4.8060 hn        1 MOL      0.341095
     73 H33         1.7760   -2.4520    3.1040 hn        1 MOL      0.341095
     74 N8         -1.4920    1.1970    2.2510 n         1 MOL     -0.292164
     75 C23        -1.5330    2.2610    1.2370 c3        1 MOL     -0.222926
     76 C24        -0.1640    2.6680    0.7890 c         1 MOL      0.599511
     77 O12         0.8710    2.4330    1.3860 o         1 MOL     -0.548210
     78 H34        -1.1250    0.3070    1.9480 hn        1 MOL      0.252382
     79 H35        -2.0200    3.1470    1.6280 h1        1 MOL      0.136447
     80 H36        -2.0150    1.9200    0.3120 h1        1 MOL      0.136447
     81 N9         -0.0600    3.3250   -0.3350 n         1 MOL     -0.350166
     82 C25         1.1720    3.6470   -1.0740 c3        1 MOL     -0.028116
     83 C26         2.1060    2.4580   -1.4360 c         1 MOL      0.406377
     84 O13         1.6680    1.2790   -1.4860 o         1 MOL     -0.513688
     85 C27         0.7200    4.5100   -2.2480 c3        1 MOL     -0.037256
     86 C28         0.0800    5.7910   -1.8600 ca        1 MOL      0.085506
     87 C29         0.6930    6.7450   -1.0520 ca        1 MOL     -0.274111
     88 C30        -1.2840    6.0040   -2.1570 ca        1 MOL     -0.274111
     89 C31         0.0790    8.0040   -0.6990 ca        1 MOL     -0.103224
     90 C32        -1.9030    7.2060   -1.7310 ca        1 MOL     -0.103224
     91 C33        -1.1870    8.2790   -1.2120 ca        1 MOL      0.205925
     92 O14        -1.7100    9.4530   -0.9600 oh        1 MOL     -0.439513
     93 H37        -0.9450    3.6310   -0.7110 hn        1 MOL      0.234526
     94 H38         1.6820    4.2820   -0.3480 h1        1 MOL      0.089957
     95 H39         0.1120    4.0470   -3.0210 hc        1 MOL      0.049878
     96 H40         1.6340    4.7880   -2.7850 hc        1 MOL      0.049878
     97 H41         1.6560    6.4770   -0.6520 ha        1 MOL      0.150041
     98 H42        -1.8680    5.2770   -2.6810 ha        1 MOL      0.150041
     99 H43         0.6310    8.7630   -0.1620 ha        1 MOL      0.118455
    100 H44        -2.9280    7.3380   -2.0480 ha        1 MOL      0.118455
    101 H45        -2.6510    9.5060   -1.1450 ho        1 MOL      0.375130
    102 N10         3.3800    2.6910   -1.7440 n         1 MOL     -0.016979
    103 C34         4.3830    1.6350   -1.9330 c3        1 MOL     -0.671209
    104 C35         5.2980    1.3600   -0.7050 c         1 MOL      0.505580
    105 O15         5.7870    0.3100   -0.5280 o         1 MOL     -0.416336
    106 C36         5.1650    1.8950   -3.2720 c3        1 MOL      0.171521
    107 C37         5.9740    3.1970   -3.4260 c3        1 MOL      0.190610
    108 C38         4.1620    1.8140   -4.4150 c3        1 MOL     -0.125435
    109 C39         6.7670    3.1680   -4.7030 c3        1 MOL     -0.277272
    110 H46         3.6180    3.6490   -1.9420 hn        1 MOL      0.194124
    111 H47         3.8370    0.6970   -2.0740 h1        1 MOL      0.292408
    112 H48         5.9140    1.1170   -3.4300 hc        1 MOL      0.033141
    113 H49         6.7190    3.2470   -2.6220 hc        1 MOL     -0.052478
    114 H50         5.3040    4.0590   -3.3880 hc        1 MOL     -0.052478
    115 H51         3.2330    2.3760   -4.2970 hc        1 MOL      0.027875
    116 H52         4.5960    1.9540   -5.4130 hc        1 MOL      0.027875
    117 H53         3.8490    0.7700   -4.5050 hc        1 MOL      0.027875
    118 H54         7.7160    3.6830   -4.5870 hc        1 MOL      0.070600
    119 H55         7.0360    2.1510   -4.9910 hc        1 MOL      0.070600
    120 H56         6.0540    3.6010   -5.4050 hc        1 MOL      0.070600
    121 N11         5.5500    2.4350    0.0870 n         1 MOL     -0.199994
    122 C40         6.4290    2.4510    1.2780 c3        1 MOL     -0.012192
    123 C41         7.5610    1.4150    1.2580 c         1 MOL      0.351283
    124 O16         7.7760    0.7160    2.2650 o         1 MOL     -0.483572
    125 C42         7.1740    3.8360    1.4960 c3        1 MOL      0.185268
    126 O17         6.1180    4.7130    1.6690 oh        1 MOL     -0.582325
    127 H57         4.9750    3.2500   -0.0480 hn        1 MOL      0.159794
    128 H58         5.8150    2.2230    2.1500 h1        1 MOL      0.118036
    129 H59         7.8790    4.1740    0.7410 h1        1 MOL      0.020819
    130 H60         7.7710    3.7420    2.4080 h1        1 MOL      0.020819
    131 H61         6.3800    5.4900    2.1770 ho        1 MOL      0.410138
    132 N12         8.3900    1.3310    0.1950 n         1 MOL     -0.389660
    133 C43         9.5640    0.5440    0.1550 c3        1 MOL      0.195216
    134 C44         9.3470   -1.0150    0.3780 c         1 MOL      0.498904
    135 O18        10.2890   -1.7030    0.7770 o         1 MOL     -0.535778
    136 C45        10.7780    1.1300    0.9770 c3        1 MOL     -0.368318
    137 H62         8.3120    1.9630   -0.5880 hn        1 MOL      0.299356
    138 H63         9.9290    0.5750   -0.8740 h1        1 MOL      0.034989
    139 H64        10.5570    1.0060    2.0380 hc        1 MOL      0.110612
    140 H65        11.7520    0.6490    0.9470 hc        1 MOL      0.110612
    141 H66        10.9720    2.1680    0.7060 hc        1 MOL      0.110612
    142 N13         8.1880   -1.5480    0.0870 n         1 MOL     -0.508426
    143 C46         7.6110   -2.7760    0.6630 c3        1 MOL      0.437772
    144 C47         6.5880   -3.4590   -0.2070 c         1 MOL      0.379086
    145 O19         6.0720   -2.7770   -1.0920 o         1 MOL     -0.473522
    146 C48         6.9400   -2.2810    1.8980 c3        1 MOL     -0.478633
    147 H67         7.4190   -1.0360   -0.3330 hn        1 MOL      0.200052
    148 H68         8.3780   -3.5240    0.8660 h1        1 MOL     -0.009955
    149 H69         6.1580   -1.5750    1.6130 hc        1 MOL      0.146377
    150 H70         6.4210   -3.0710    2.4420 hc        1 MOL      0.146377
    151 H71         7.7800   -1.9010    2.4760 hc        1 MOL      0.146377
    152 N14         6.3000   -4.7260    0.0010 n         1 MOL     -0.583517
    153 C49         5.2790   -5.6120   -0.6070 c3        1 MOL     -0.069912
    154 C50         5.3250   -5.7970   -2.1950 c         1 MOL      0.390862
    155 O20         4.7470   -6.6890   -2.8660 o         1 MOL     -0.519201
    156 C51         3.8880   -5.1210   -0.2860 c3        1 MOL      0.161470
    157 C52         3.5660   -4.8010    1.1690 c3        1 MOL     -0.008635
    158 C53         2.2690   -4.1180    1.3000 c         1 MOL      0.535945
    159 O21         1.2890   -4.7160    1.7730 o         1 MOL     -0.617858
    160 O22         2.2980   -2.8710    1.1620 o         1 MOL     -0.617858
    161 H72         6.8720   -5.1950    0.6850 hn        1 MOL      0.364121
    162 H73         5.3490   -6.6130   -0.1720 h1        1 MOL      0.131963
    163 H74         3.1260   -5.8740   -0.4980 hc        1 MOL     -0.014391
    164 H75         3.7260   -4.2210   -0.8800 hc        1 MOL     -0.014391
    165 H76         4.3740   -4.2040    1.5800 hc        1 MOL     -0.028702
    166 H77         3.5750   -5.7790    1.6530 hc        1 MOL     -0.028702
    167 N15         6.1670   -5.0000   -2.8670 n         1 MOL     -0.189957
    168 C54         6.2690   -4.8730   -4.3410 c3        1 MOL     -0.277886
    169 H78         5.4310   -4.2840   -4.7130 h1        1 MOL      0.120427
    170 H79         7.2050   -4.3770   -4.6000 h1        1 MOL      0.120427
    171 H80         6.2450   -5.8650   -4.7940 h1        1 MOL      0.120427
    172 H81         6.5400   -4.2460   -2.3050 hn        1 MOL      0.232886
    173 Ca1         1.0840   -1.1320   -0.2790 Ca        1 MOL      1.753644
    174 O23         3.1010    0.0860    1.1350 oh        1 MOL     -0.864801
    175 H82         3.6500   -0.3430    1.7930 ho        1 MOL      0.424627
    176 H83         2.4580    0.5800    1.6410 ho        1 MOL      0.424627
    177 O24         3.4860   -1.6420   -1.2410 oh        1 MOL     -0.864801
    178 H84         3.9790   -2.1640   -1.8670 ho        1 MOL      0.424627
    179 H85         4.1340   -1.3730   -0.5860 ho        1 MOL      0.424627
    180 O25         0.2370   -3.3290   -1.3890 oh        1 MOL     -0.864801
    181 H86        -0.3530   -4.0450   -1.1390 ho        1 MOL      0.424627
    182 H87         0.4430   -3.5000   -2.3120 ho        1 MOL      0.424627
    183 O26         1.1850   -1.2200   -3.0130 oh        1 MOL     -0.864801
    184 H88         0.6130   -1.7380   -3.5720 ho        1 MOL      0.424627
    185 H89         1.8080   -0.8150   -3.6130 ho        1 MOL      0.424627
@<TRIPOS>BOND
     1    1    2 1   
     2    1    4 1   
     3    1    5 1   
     4    1    6 1   
     5    2    3 2   
     6    2    7 1   
     7    7    8 1   
     8    7   15 1   
     9    8    9 1   
    10    8   11 1   
    11    8   16 1   
    12    9   10 2   
    13    9   19 1   
    14   11   12 1   
    15   11   17 1   
    16   11   18 1   
    17   12   13 1   
    18   12   14 1   
    19   19   20 1   
    20   19   28 1   
    21   20   21 1   
    22   20   23 1   
    23   20   29 1   
    24   21   22 2   
    25   21   41 1   
    26   23   24 1   
    27   23   30 1   
    28   23   31 1   
    29   24   25 1   
    30   24   32 1   
    31   24   33 1   
    32   25   26 1   
    33   25   34 1   
    34   25   35 1   
    35   26   27 1   
    36   26   36 1   
    37   26   37 1   
    38   27   38 1   
    39   27   39 1   
    40   27   40 1   
    41   41   42 1   
    42   41   49 1   
    43   42   43 1   
    44   42   45 1   
    45   42   50 1   
    46   43   44 2   
    47   43   53 1   
    48   45   46 1   
    49   45   51 1   
    50   45   52 1   
    51   46   47 1   
    52   46   48 1   
    53   53   54 1   
    54   53   57 1   
    55   54   55 1   
    56   54   58 1   
    57   54   59 1   
    58   55   56 2   
    59   55   60 1   
    60   60   61 1   
    61   60   68 1   
    62   61   62 1   
    63   61   64 1   
    64   61   69 1   
    65   62   63 2   
    66   62   74 1   
    67   64   65 1   
    68   64   70 1   
    69   64   71 1   
    70   65   66 1   
    71   65   67 2   
    72   66   72 1   
    73   66   73 1   
    74   74   75 1   
    75   74   78 1   
    76   75   76 1   
    77   75   79 1   
    78   75   80 1   
    79   76   77 2   
    80   76   81 1   
    81   81   82 1   
    82   81   93 1   
    83   82   83 1   
    84   82   85 1   
    85   82   94 1   
    86   83   84 2   
    87   83  102 1   
    88   85   86 1   
    89   85   95 1   
    90   85   96 1   
    91   86   87 ar  
    92   86   88 ar  
    93   87   89 ar  
    94   87   97 1   
    95   88   90 ar  
    96   88   98 1   
    97   89   91 ar  
    98   89   99 1   
    99   90   91 ar  
   100   90  100 1   
   101   91   92 1   
   102   92  101 1   
   103  102  103 1   
   104  102  110 1   
   105  103  104 1   
   106  103  106 1   
   107  103  111 1   
   108  104  105 2   
   109  104  121 1   
   110  106  107 1   
   111  106  108 1   
   112  106  112 1   
   113  107  109 1   
   114  107  113 1   
   115  107  114 1   
   116  108  115 1   
   117  108  116 1   
   118  108  117 1   
   119  109  118 1   
   120  109  119 1   
   121  109  120 1   
   122  121  122 1   
   123  121  127 1   
   124  122  123 1   
   125  122  125 1   
   126  122  128 1   
   127  123  124 2   
   128  123  132 1   
   129  125  126 1   
   130  125  129 1   
   131  125  130 1   
   132  126  131 1   
   133  132  133 1   
   134  132  137 1   
   135  133  134 1   
   136  133  136 1   
   137  133  138 1   
   138  134  135 2   
   139  134  142 1   
   140  136  139 1   
   141  136  140 1   
   142  136  141 1   
   143  142  143 1   
   144  142  147 1   
   145  143  144 1   
   146  143  146 1   
   147  143  148 1   
   148  144  145 2   
   149  144  152 1   
   150  146  149 1   
   151  146  150 1   
   152  146  151 1   
   153  152  153 1   
   154  152  161 1   
   155  153  154 1   
   156  153  156 1   
   157  153  162 1   
   158  154  155 2   
   159  154  167 1   
   160  156  157 1   
   161  156  163 1   
   162  156  164 1   
   163  157  158 1   
   164  157  165 1   
   165  157  166 1   
   166  158  159 1   
   167  158  160 1   
   168  167  168 1   
   169  167  172 1   
   170  168  169 1   
   171  168  170 1   
   172  168  171 1   
   173  174  175 1   
   174  174  176 1   
   175  177  178 1   
   176  177  179 1   
   177  180  181 1   
   178  180  182 1   
   179  183  184 1   
   180  183  185 1   
@<TRIPOS>SUBSTRUCTURE
     1 MOL         1 TEMP              0 ****  ****    0 ROOT
