@<TRIPOS>MOLECULE
MOL
  194   186     1     0     0
SMALL
resp


@<TRIPOS>ATOM
      1 C1          0.7360    1.5140    2.9670 c3        1 MOL     -0.292611
      2 C2          1.9840    1.7290    2.0860 c         1 MOL      0.717676
      3 O1          1.8290    2.1810    0.9420 o         1 MOL     -0.593271
      4 H1         -0.1170    2.0190    2.5160 hc        1 MOL      0.074416
      5 H2          0.5260    0.4470    3.0460 hc        1 MOL      0.074416
      6 H3          0.9170    1.9240    3.9610 hc        1 MOL      0.074416
      7 N1          3.1710    1.5130    2.6640 n         1 MOL     -0.589376
      8 C3          4.4760    1.8100    2.0100 c3        1 MOL      0.037926
      9 C4          5.6450    0.8460    2.1410 c         1 MOL      0.421791
     10 O2          6.7080    1.1560    1.5930 o         1 MOL     -0.398906
     11 C5          4.8840    3.2780    2.3100 c3        1 MOL     -0.396745
     12 C6          5.3830    3.5520    3.7040 c         1 MOL      0.823744
     13 O3          5.6910    4.6760    4.1700 o         1 MOL     -0.670745
     14 O4          5.5390    2.6350    4.5260 o         1 MOL     -0.670745
     15 H4          3.1750    1.2300    3.6320 hn        1 MOL      0.297650
     16 H5          4.2720    1.7870    0.9380 h1        1 MOL      0.068268
     17 H6          3.9860    3.8880    2.2440 hc        1 MOL      0.128134
     18 H7          5.6600    3.5840    1.6130 hc        1 MOL      0.128134
     19 N2          5.4530   -0.3280    2.7450 n         1 MOL     -0.282749
     20 C7          6.3850   -1.4080    2.8010 c3        1 MOL     -0.031602
     21 C8          7.2400   -1.6470    1.5330 c         1 MOL      0.438588
     22 O5          8.4290   -1.6120    1.6090 o         1 MOL     -0.485951
     23 C9          7.0500   -1.4300    4.1700 c3        1 MOL     -0.239551
     24 C10         6.0740   -1.6450    5.2980 c3        1 MOL     -0.178046
     25 C11         5.9050   -3.1510    5.4210 c3        1 MOL      0.033724
     26 C12         5.1460   -3.4010    6.7420 c3        1 MOL      0.095113
     27 N3          5.0190   -4.8140    7.0800 n4        1 MOL     -0.208497
     28 H8          4.4990   -0.4770    3.0360 hn        1 MOL      0.240056
     29 H9          5.7660   -2.3000    2.8090 h1        1 MOL      0.062824
     30 H10         7.5090   -0.4670    4.4070 hc        1 MOL      0.141646
     31 H11         7.8170   -2.2000    4.1920 hc        1 MOL      0.141646
     32 H12         5.0370   -1.3220    5.1980 hc        1 MOL      0.102894
     33 H13         6.6750   -1.2810    6.1390 hc        1 MOL      0.102894
     34 H14         6.8410   -3.6900    5.5290 hc        1 MOL     -0.002917
     35 H15         5.3290   -3.4990    4.5700 hc        1 MOL     -0.002917
     36 H16         4.1500   -2.9410    6.6970 hx        1 MOL      0.046657
     37 H17         5.7570   -2.8580    7.4560 hx        1 MOL      0.046657
     38 H18         5.9300   -5.2460    7.1930 hn        1 MOL      0.229703
     39 H19         4.5900   -4.9790    7.9710 hn        1 MOL      0.229703
     40 H20         4.5140   -5.3010    6.3440 hn        1 MOL      0.229703
     41 N4          6.5080   -1.7790    0.4450 n         1 MOL     -0.356946
     42 C13         6.9850   -1.8620   -0.9620 c3        1 MOL      0.197194
     43 C14         6.3080   -0.7470   -1.8320 c         1 MOL      0.352423
     44 O6          6.1170   -1.0150   -3.0150 o         1 MOL     -0.468267
     45 C15         6.7210   -3.2520   -1.5670 c3        1 MOL     -0.213994
     46 C16         5.3410   -3.8250   -1.6500 c         1 MOL      0.591402
     47 O7          5.1640   -5.0430   -1.7940 o         1 MOL     -0.668474
     48 O8          4.3240   -3.0840   -1.8270 o         1 MOL     -0.668474
     49 H21         5.5130   -1.6680    0.5650 hn        1 MOL      0.195876
     50 H22         8.0590   -1.7150   -0.8500 h1        1 MOL      0.072212
     51 H23         7.3500   -3.9280   -0.9990 hc        1 MOL      0.063679
     52 H24         7.1980   -3.2780   -2.5410 hc        1 MOL      0.063679
     53 N5          6.0690    0.4720   -1.2720 n         1 MOL     -0.325795
     54 C17         5.4200    1.6330   -1.8700 c3        1 MOL     -0.040250
     55 C18         6.2430    2.7130   -2.6010 c         1 MOL      0.689005
     56 O9          7.4260    2.6400   -2.6890 o         1 MOL     -0.526590
     57 H25         6.4790    0.6430   -0.3630 hn        1 MOL      0.230125
     58 H26         4.8910    2.1230   -1.0480 h1        1 MOL      0.076818
     59 H27         4.7710    1.2590   -2.6560 h1        1 MOL      0.076818
     60 N6          5.5550    3.7330   -3.1520 n         1 MOL     -0.698395
     61 C19         4.3120    4.2960   -2.6610 c3        1 MOL      0.434502
     62 C20         4.4180    4.6640   -1.2260 c         1 MOL      0.415195
     63 O10         5.4710    4.8560   -0.6640 o         1 MOL     -0.474787
     64 C21         4.0610    5.5900   -3.4890 c3        1 MOL     -0.549176
     65 C22         3.8130    5.3470   -4.9820 c         1 MOL      0.718068
     66 N7          2.5970    5.3090   -5.3680 n         1 MOL     -0.716602
     67 O11         4.7600    5.1870   -5.7770 o         1 MOL     -0.550695
     68 H28         6.0720    4.3580   -3.7510 hn        1 MOL      0.339401
     69 H29         3.5610    3.5170   -2.8090 h1        1 MOL     -0.014589
     70 H30         4.9010    6.2560   -3.2890 hc        1 MOL      0.149580
     71 H31         3.1940    6.1420   -3.1270 hc        1 MOL      0.149580
     72 H32         1.8580    5.6050   -4.7440 hn        1 MOL      0.339990
     73 H33         2.3340    5.3770   -6.3330 hn        1 MOL      0.339990
     74 N8          3.2480    4.8620   -0.5250 n         1 MOL     -0.234624
     75 C23         1.8990    4.5390   -1.0230 c3        1 MOL     -0.403603
     76 C24         0.7800    4.7130    0.0160 c         1 MOL      0.961360
     77 O12         0.8950    5.5000    0.9670 o         1 MOL     -0.573704
     78 H34         3.2370    5.2840    0.3910 hn        1 MOL      0.227756
     79 H35         1.8230    3.5880   -1.5530 h1        1 MOL      0.090991
     80 H36         1.7300    5.3930   -1.6790 h1        1 MOL      0.090991
     81 N9         -0.3660    4.0990   -0.3540 n         1 MOL     -0.772001
     82 C25        -1.6690    4.6130    0.0310 c3        1 MOL      0.176948
     83 C26        -2.7220    3.4810    0.2210 c         1 MOL      0.590704
     84 O13        -2.6880    2.4060   -0.3240 o         1 MOL     -0.528136
     85 C27        -2.0800    5.6420   -1.0320 c3        1 MOL     -0.136257
     86 C28        -3.1850    6.6350   -0.5860 ca        1 MOL     -0.021920
     87 C29        -4.5440    6.3880   -0.9080 ca        1 MOL     -0.065199
     88 C30        -2.8090    7.7480    0.1630 ca        1 MOL     -0.065199
     89 C31        -5.5290    7.3100   -0.4990 ca        1 MOL     -0.356327
     90 C32        -3.7710    8.6310    0.6080 ca        1 MOL     -0.356327
     91 C33        -5.1680    8.4350    0.2390 ca        1 MOL      0.417522
     92 O14        -6.1290    9.2470    0.7600 oh        1 MOL     -0.514102
     93 H37        -0.2530    3.4970   -1.1610 hn        1 MOL      0.346025
     94 H38        -1.6490    5.1270    0.9930 h1        1 MOL      0.023854
     95 H39        -2.4100    5.2120   -1.9780 hc        1 MOL      0.052013
     96 H40        -1.2080    6.2560   -1.2210 hc        1 MOL      0.052013
     97 H41        -4.7580    5.4860   -1.4560 ha        1 MOL      0.120615
     98 H42        -1.7640    7.9880    0.3520 ha        1 MOL      0.120615
     99 H43        -6.5620    7.1170   -0.7450 ha        1 MOL      0.165533
    100 H44        -3.4950    9.4590    1.2520 ha        1 MOL      0.165533
    101 H45        -5.8400    9.8230    1.4590 ho        1 MOL      0.375806
    102 N10        -3.7410    3.7940    1.0450 n         1 MOL     -0.261458
    103 C34        -4.9230    2.9300    1.3060 c3        1 MOL     -0.499701
    104 C35        -5.7640    2.7050   -0.0120 c         1 MOL      0.592529
    105 O15        -6.2330    3.6290   -0.7000 o         1 MOL     -0.476837
    106 C36        -5.7780    3.5650    2.4580 c3        1 MOL      0.174419
    107 C37        -6.8940    2.5500    3.0430 c3        1 MOL      0.156315
    108 C38        -4.9140    4.0940    3.6100 c3        1 MOL     -0.341379
    109 C39        -7.9410    3.2980    3.9310 c3        1 MOL     -0.328905
    110 H46        -3.7180    4.5690    1.6870 hn        1 MOL      0.255938
    111 H47        -4.5020    1.9480    1.5370 h1        1 MOL      0.203174
    112 H48        -6.3600    4.3890    2.0460 hc        1 MOL      0.049290
    113 H49        -6.3630    1.7970    3.6290 hc        1 MOL     -0.013657
    114 H50        -7.4370    2.1040    2.2030 hc        1 MOL     -0.013657
    115 H51        -4.2620    3.2680    3.8850 hc        1 MOL      0.093375
    116 H52        -4.2000    4.8880    3.3800 hc        1 MOL      0.093375
    117 H53        -5.4450    4.3680    4.5270 hc        1 MOL      0.093375
    118 H54        -8.8000    2.6390    4.0370 hc        1 MOL      0.083116
    119 H55        -7.5220    3.5120    4.9120 hc        1 MOL      0.083116
    120 H56        -8.0820    4.2480    3.4220 hc        1 MOL      0.083116
    121 N11        -5.7460    1.4300   -0.4520 n         1 MOL     -0.316043
    122 C40        -6.2780    0.9600   -1.7230 c3        1 MOL      0.032244
    123 C41        -5.8030   -0.4960   -1.9260 c         1 MOL      0.587447
    124 O16        -5.3770   -1.1520   -0.9610 o         1 MOL     -0.385270
    125 C42        -7.7900    1.1200   -1.8620 c3        1 MOL      0.099101
    126 O17        -8.4800    0.6760   -0.7200 oh        1 MOL     -0.569784
    127 H57        -5.3450    0.7110    0.1340 hn        1 MOL      0.199568
    128 H58        -5.9030    1.5820   -2.5340 h1        1 MOL      0.052782
    129 H59        -8.1350    0.5820   -2.7420 h1        1 MOL      0.023993
    130 H60        -7.9270    2.1900   -2.0120 h1        1 MOL      0.023993
    131 H61        -9.4060    0.8650   -0.8930 ho        1 MOL      0.407121
    132 N12        -5.8270   -1.0040   -3.1640 n         1 MOL     -0.625386
    133 C43        -5.1220   -2.1800   -3.6400 c3        1 MOL      0.386220
    134 C44        -5.4790   -3.4670   -2.9010 c         1 MOL      0.378052
    135 O18        -4.6540   -4.3170   -2.6020 o         1 MOL     -0.462350
    136 C45        -3.6570   -1.8390   -3.8630 c3        1 MOL     -0.330302
    137 H62        -6.4070   -0.6200   -3.8990 hn        1 MOL      0.291566
    138 H63        -5.4400   -2.4410   -4.6470 h1        1 MOL      0.012417
    139 H64        -3.3730   -1.3810   -2.9210 hc        1 MOL      0.078769
    140 H65        -3.2030   -2.8210   -3.9510 hc        1 MOL      0.078769
    141 H66        -3.4880   -1.0800   -4.6300 hc        1 MOL      0.078769
    142 N13        -6.7760   -3.5960   -2.5550 n         1 MOL     -0.527958
    143 C46        -7.4370   -4.7680   -1.8570 c3        1 MOL      0.335848
    144 C47        -6.7770   -5.1120   -0.4840 c         1 MOL      0.306577
    145 O19        -6.7220   -6.2480   -0.0670 o         1 MOL     -0.456540
    146 C48        -7.4310   -5.9340   -2.7890 c3        1 MOL     -0.485571
    147 H67        -7.3790   -2.8760   -2.9230 hn        1 MOL      0.267745
    148 H68        -8.4320   -4.3870   -1.6100 h1        1 MOL      0.011679
    149 H69        -8.1270   -6.6900   -2.4260 hc        1 MOL      0.137572
    150 H70        -7.7170   -5.6850   -3.8170 hc        1 MOL      0.137572
    151 H71        -6.5050   -6.4790   -2.6100 hc        1 MOL      0.137572
    152 N14        -6.1580   -4.1310    0.2360 n         1 MOL     -0.123308
    153 C49        -5.4650   -4.3800    1.5400 c3        1 MOL     -0.272114
    154 C50        -6.3860   -4.5440    2.7360 c         1 MOL      0.539629
    155 O20        -6.3170   -5.5380    3.4700 o         1 MOL     -0.488245
    156 C51        -4.4640   -3.1610    1.8050 c3        1 MOL      0.172835
    157 C52        -3.4010   -3.4760    2.9030 c3        1 MOL     -0.307687
    158 C53        -2.6350   -4.7680    2.6340 c         1 MOL      0.739001
    159 O21        -2.7830   -5.6890    3.4400 o         1 MOL     -0.727833
    160 O22        -1.8340   -4.9380    1.6700 o         1 MOL     -0.727833
    161 H72        -6.4300   -3.1780    0.0320 hn        1 MOL      0.126380
    162 H73        -4.8620   -5.2940    1.5250 h1        1 MOL      0.242542
    163 H74        -5.0460   -2.2450    1.8830 hc        1 MOL     -0.060413
    164 H75        -3.7800   -3.0320    0.9640 hc        1 MOL     -0.060413
    165 H76        -3.7990   -3.4120    3.9150 hc        1 MOL      0.057433
    166 H77        -2.6240   -2.7170    2.8470 hc        1 MOL      0.057433
    167 N15        -7.4580   -3.7960    2.7350 n         1 MOL     -0.309794
    168 C54        -8.6130   -3.9110    3.6760 c3        1 MOL     -0.201883
    169 H78        -9.4760   -3.3930    3.2570 h1        1 MOL      0.097220
    170 H79        -8.8590   -4.9630    3.8240 h1        1 MOL      0.097220
    171 H80        -8.3500   -3.4600    4.6330 h1        1 MOL      0.097220
    172 H81        -7.5690   -3.0530    2.0600 hn        1 MOL      0.245090
    173 Ca1         2.7180   -5.2880   -2.5660 Ca        1 MOL      1.742357
    174 O23         1.0890   -3.2230   -1.8190 oh        1 MOL     -0.843692
    175 H82         0.6140   -2.8940   -2.5790 ho        1 MOL      0.423011
    176 H83         0.5240   -2.9930   -1.0740 ho        1 MOL      0.423011
    177 O24         0.2930   -5.3820   -4.0450 oh        1 MOL     -0.843692
    178 H84        -0.1350   -4.8580   -4.7230 ho        1 MOL      0.423011
    179 H85        -0.4290   -5.8320   -3.5990 ho        1 MOL      0.423011
    180 O25         4.6060   -5.6950   -4.3920 oh        1 MOL     -0.843692
    181 H86         5.0980   -4.9040   -4.6050 ho        1 MOL      0.423011
    182 H87         5.1430   -6.4090   -4.7330 ho        1 MOL      0.423011
    183 O26         2.9720   -4.9890    0.1210 oh        1 MOL     -0.843692
    184 H88         3.6620   -4.8810    0.7810 ho        1 MOL      0.423011
    185 H89         2.1560   -4.9550    0.6160 ho        1 MOL      0.423011
    186 O27         0.7720   -6.6740   -1.1690 oh        1 MOL     -0.843692
    187 H90         0.9190   -6.3120   -0.3040 ho        1 MOL      0.423011
    188 H91        -0.0540   -7.1660   -1.0840 ho        1 MOL      0.423011
    189 O28         3.3080   -8.0520   -2.5640 oh        1 MOL     -0.843692
    190 H92         2.6370   -8.4450   -2.0000 ho        1 MOL      0.423011
    191 H93         3.1210   -8.4070   -3.4380 ho        1 MOL      0.423011
    192 O29         2.8060   -3.1840   -4.3140 oh        1 MOL     -0.843692
    193 H94         2.7030   -3.0640   -5.2540 ho        1 MOL      0.423011
    194 H95         2.7060   -2.3120   -3.9490 ho        1 MOL      0.423011
@<TRIPOS>BOND
     1    1    2 1   
     2    1    4 1   
     3    1    5 1   
     4    1    6 1   
     5    2    3 2   
     6    2    7 1   
     7    7    8 1   
     8    7   15 1   
     9    8    9 1   
    10    8   11 1   
    11    8   16 1   
    12    9   10 2   
    13    9   19 1   
    14   11   12 1   
    15   11   17 1   
    16   11   18 1   
    17   12   13 1   
    18   12   14 1   
    19   19   20 1   
    20   19   28 1   
    21   20   21 1   
    22   20   23 1   
    23   20   29 1   
    24   21   22 2   
    25   21   41 1   
    26   23   24 1   
    27   23   30 1   
    28   23   31 1   
    29   24   25 1   
    30   24   32 1   
    31   24   33 1   
    32   25   26 1   
    33   25   34 1   
    34   25   35 1   
    35   26   27 1   
    36   26   36 1   
    37   26   37 1   
    38   27   38 1   
    39   27   39 1   
    40   27   40 1   
    41   41   42 1   
    42   41   49 1   
    43   42   43 1   
    44   42   45 1   
    45   42   50 1   
    46   43   44 2   
    47   43   53 1   
    48   45   46 1   
    49   45   51 1   
    50   45   52 1   
    51   46   47 1   
    52   46   48 1   
    53   53   54 1   
    54   53   57 1   
    55   54   55 1   
    56   54   58 1   
    57   54   59 1   
    58   55   56 2   
    59   55   60 1   
    60   60   61 1   
    61   60   68 1   
    62   61   62 1   
    63   61   64 1   
    64   61   69 1   
    65   62   63 2   
    66   62   74 1   
    67   64   65 1   
    68   64   70 1   
    69   64   71 1   
    70   65   66 1   
    71   65   67 2   
    72   66   72 1   
    73   66   73 1   
    74   74   75 1   
    75   74   78 1   
    76   75   76 1   
    77   75   79 1   
    78   75   80 1   
    79   76   77 2   
    80   76   81 1   
    81   81   82 1   
    82   81   93 1   
    83   82   83 1   
    84   82   85 1   
    85   82   94 1   
    86   83   84 2   
    87   83  102 1   
    88   85   86 1   
    89   85   95 1   
    90   85   96 1   
    91   86   87 ar  
    92   86   88 ar  
    93   87   89 ar  
    94   87   97 1   
    95   88   90 ar  
    96   88   98 1   
    97   89   91 ar  
    98   89   99 1   
    99   90   91 ar  
   100   90  100 1   
   101   91   92 1   
   102   92  101 1   
   103  102  103 1   
   104  102  110 1   
   105  103  104 1   
   106  103  106 1   
   107  103  111 1   
   108  104  105 2   
   109  104  121 1   
   110  106  107 1   
   111  106  108 1   
   112  106  112 1   
   113  107  109 1   
   114  107  113 1   
   115  107  114 1   
   116  108  115 1   
   117  108  116 1   
   118  108  117 1   
   119  109  118 1   
   120  109  119 1   
   121  109  120 1   
   122  121  122 1   
   123  121  127 1   
   124  122  123 1   
   125  122  125 1   
   126  122  128 1   
   127  123  124 2   
   128  123  132 1   
   129  125  126 1   
   130  125  129 1   
   131  125  130 1   
   132  126  131 1   
   133  132  133 1   
   134  132  137 1   
   135  133  134 1   
   136  133  136 1   
   137  133  138 1   
   138  134  135 2   
   139  134  142 1   
   140  136  139 1   
   141  136  140 1   
   142  136  141 1   
   143  142  143 1   
   144  142  147 1   
   145  143  144 1   
   146  143  146 1   
   147  143  148 1   
   148  144  145 2   
   149  144  152 1   
   150  146  149 1   
   151  146  150 1   
   152  146  151 1   
   153  152  153 1   
   154  152  161 1   
   155  153  154 1   
   156  153  156 1   
   157  153  162 1   
   158  154  155 2   
   159  154  167 1   
   160  156  157 1   
   161  156  163 1   
   162  156  164 1   
   163  157  158 1   
   164  157  165 1   
   165  157  166 1   
   166  158  159 1   
   167  158  160 1   
   168  167  168 1   
   169  167  172 1   
   170  168  169 1   
   171  168  170 1   
   172  168  171 1   
   173  174  175 1   
   174  174  176 1   
   175  177  178 1   
   176  177  179 1   
   177  180  181 1   
   178  180  182 1   
   179  183  184 1   
   180  183  185 1   
   181  186  187 1   
   182  186  188 1   
   183  189  190 1   
   184  189  191 1   
   185  192  193 1   
   186  192  194 1   
@<TRIPOS>SUBSTRUCTURE
     1 MOL         1 TEMP              0 ****  ****    0 ROOT
