@<TRIPOS>MOLECULE
MOL
  189   185     1     0     0
SMALL
resp


@<TRIPOS>ATOM
      1 C1          4.6980    4.6050   -2.8510 c3        1 MOL     -0.379082
      2 C2          5.4730    3.6310   -1.8190 c         1 MOL      0.717904
      3 O1          5.0330    3.2560   -0.7310 o         1 MOL     -0.589676
      4 H1          3.6440    4.3320   -2.8860 hc        1 MOL      0.103059
      5 H2          4.7940    5.6390   -2.5180 hc        1 MOL      0.103059
      6 H3          5.1330    4.5020   -3.8460 hc        1 MOL      0.103059
      7 N1          6.6690    3.1690   -2.2430 n         1 MOL     -0.580568
      8 C3          7.4730    2.1200   -1.6830 c3        1 MOL      0.174340
      9 C4          6.5410    0.8850   -1.5840 c         1 MOL      0.331812
     10 O2          6.1760    0.4260   -0.5350 o         1 MOL     -0.322981
     11 C5          8.2820    2.5210   -0.4170 c3        1 MOL     -0.182838
     12 C6          7.6570    3.4830    0.6410 c         1 MOL      0.740853
     13 O3          6.9600    2.9530    1.5720 o         1 MOL     -0.724410
     14 O4          8.1020    4.6670    0.6900 o         1 MOL     -0.724410
     15 H4          7.0300    3.6320   -3.0650 hn        1 MOL      0.306634
     16 H5          8.2380    1.9610   -2.4380 h1        1 MOL      0.030685
     17 H6          9.1500    3.0930   -0.7430 hc        1 MOL      0.042752
     18 H7          8.6600    1.5950    0.0200 hc        1 MOL      0.042752
     19 N2          6.1130    0.3300   -2.7660 n         1 MOL     -0.491398
     20 C7          5.2560   -0.9060   -2.9260 c3        1 MOL      0.109920
     21 C8          5.8040   -2.1890   -2.3330 c         1 MOL      0.498630
     22 O5          6.2650   -3.0680   -3.1390 o         1 MOL     -0.580147
     23 C9          3.7470   -0.5880   -2.7790 c3        1 MOL      0.135160
     24 C10         2.9140   -1.8160   -3.2480 c3        1 MOL      0.090966
     25 C11         3.2500    0.7450   -3.4120 c3        1 MOL     -0.232138
     26 C12         2.7070   -1.9280   -4.7370 c3        1 MOL     -0.152244
     27 H8          6.4410    0.8310   -3.5830 hn        1 MOL      0.288359
     28 H9          5.4290   -1.1460   -3.9740 h1        1 MOL      0.029007
     29 H10         3.4540   -0.4750   -1.7370 hc        1 MOL     -0.112258
     30 H11         1.9320   -1.5860   -2.8300 hc        1 MOL      0.015717
     31 H12         3.2280   -2.7460   -2.7540 hc        1 MOL      0.015717
     32 H13         3.4140    0.8700   -4.4830 hc        1 MOL      0.040164
     33 H14         2.2320    0.9290   -3.0640 hc        1 MOL      0.040164
     34 H15         3.8470    1.5830   -3.0410 hc        1 MOL      0.040164
     35 H16         1.9870   -2.7120   -4.9620 hc        1 MOL      0.018218
     36 H17         2.3350   -0.9960   -5.1630 hc        1 MOL      0.018218
     37 H18         3.6160   -2.1880   -5.2870 hc        1 MOL      0.018218
     38 N3          5.7990   -2.3690   -1.0120 n         1 MOL     -0.474577
     39 C13         6.4620   -3.4920   -0.3490 c3        1 MOL      0.542546
     40 C14         5.5620   -4.7550   -0.2970 c         1 MOL      0.529927
     41 O6          6.0050   -5.8020   -0.8150 o         1 MOL     -0.587249
     42 C15         7.0680   -2.8950    0.9270 c3        1 MOL     -0.211061
     43 C16         7.8670   -3.9850    1.7770 c         1 MOL      0.572796
     44 O7          9.1100   -3.9930    1.5820 o         1 MOL     -0.681969
     45 O8          7.2090   -4.9030    2.3740 o         1 MOL     -0.681969
     46 H19         5.8260   -1.4820   -0.5300 hn        1 MOL      0.220670
     47 H20         7.2520   -3.8680   -1.0110 h1        1 MOL     -0.067182
     48 H21         6.3080   -2.5350    1.6270 hc        1 MOL      0.004700
     49 H22         7.7750   -2.1170    0.6460 hc        1 MOL      0.004700
     50 N4          4.4140   -4.7730    0.3750 n         1 MOL     -0.570303
     51 C17         3.7880   -3.6350    0.9980 c3        1 MOL      0.117450
     52 C18         2.3940   -4.0570    1.4690 c         1 MOL      0.606111
     53 O9          1.7820   -5.0590    1.0360 o         1 MOL     -0.647309
     54 H23         3.9790   -5.6560    0.5560 hn        1 MOL      0.336163
     55 H24         3.6270   -2.8720    0.2320 h1        1 MOL      0.048849
     56 H25         4.3110   -3.3020    1.8910 h1        1 MOL      0.048849
     57 N5          1.7000   -3.2610    2.2440 n         1 MOL     -0.221569
     58 C19         1.9310   -1.8930    2.7520 c3        1 MOL     -0.099429
     59 C20         2.0870   -0.8360    1.6850 c         1 MOL      0.952780
     60 O10         3.1390   -0.3260    1.5010 o         1 MOL     -0.790671
     61 C21         3.1100   -1.8150    3.8140 c3        1 MOL     -0.292798
     62 C22         3.0300   -3.0120    4.7560 c         1 MOL      0.648996
     63 O11         3.6490   -4.0890    4.5740 o         1 MOL     -0.702989
     64 O12         2.2300   -2.8210    5.7210 o         1 MOL     -0.702989
     65 H26         0.7670   -3.6230    2.3950 hn        1 MOL      0.203212
     66 H27         1.0150   -1.6320    3.2800 h1        1 MOL      0.063040
     67 H28         2.9100   -0.9570    4.4680 hc        1 MOL      0.099616
     68 H29         4.0980   -1.7420    3.3630 hc        1 MOL      0.099616
     69 N6          1.0720   -0.4880    0.9760 n         1 MOL     -0.630192
     70 C23        -0.3110   -0.9510    0.9930 c3        1 MOL     -0.077541
     71 C24        -0.4560   -2.2770    0.1500 c         1 MOL      0.392605
     72 O13         0.3290   -2.3570   -0.7710 o         1 MOL     -0.499136
     73 H30         1.2920    0.2310    0.3030 hn        1 MOL      0.394081
     74 H31        -1.0460   -0.2570    0.5800 h1        1 MOL      0.077462
     75 H32        -0.7100   -1.1230    1.9870 h1        1 MOL      0.077462
     76 N7         -1.4830   -3.0520    0.4090 n         1 MOL     -0.368451
     77 C25        -1.9150   -4.1200   -0.5390 c3        1 MOL     -0.027309
     78 C26        -2.3010   -3.7130   -1.9540 c         1 MOL      0.374280
     79 O14        -2.5610   -4.5720   -2.8010 o         1 MOL     -0.497245
     80 C27        -3.0120   -5.0100    0.0700 c3        1 MOL      0.165354
     81 C28        -4.3860   -4.3910    0.1770 c3        1 MOL     -0.206640
     82 C29        -5.3300   -5.2220    1.0110 c         1 MOL      0.685047
     83 N8         -5.1040   -5.3510    2.2920 n         1 MOL     -0.776014
     84 O15        -6.2930   -5.8490    0.5610 o         1 MOL     -0.556386
     85 H33        -2.0150   -2.8220    1.2370 hn        1 MOL      0.265591
     86 H34        -1.0370   -4.7680   -0.6050 h1        1 MOL      0.156657
     87 H35        -2.6120   -5.3040    1.0400 hc        1 MOL     -0.007250
     88 H36        -3.0050   -5.9180   -0.5360 hc        1 MOL     -0.007250
     89 H37        -4.8040   -4.2330   -0.8220 hc        1 MOL      0.029419
     90 H38        -4.3340   -3.4220    0.6610 hc        1 MOL      0.029419
     91 H39        -4.5200   -4.7200    2.8350 hn        1 MOL      0.353572
     92 H40        -5.4620   -6.1540    2.7910 hn        1 MOL      0.353572
     93 N9         -2.6280   -2.4160   -2.1980 n         1 MOL     -0.108329
     94 C30        -3.1450   -1.7690   -3.4310 c3        1 MOL     -0.178241
     95 C31        -4.5460   -1.2750   -3.4370 c         1 MOL      0.426654
     96 O16        -5.0410   -0.7230   -4.4020 o         1 MOL     -0.524450
     97 C32        -2.1850   -0.6490   -3.9700 c3        1 MOL      0.090881
     98 C33        -0.7710   -1.2320   -4.1560 c3        1 MOL     -0.125642
     99 C34        -1.9180    0.4790   -2.9810 c3        1 MOL     -0.125642
    100 H41        -2.5510   -1.8010   -1.4060 hn        1 MOL      0.169969
    101 H42        -3.1750   -2.5400   -4.1960 h1        1 MOL      0.142721
    102 H43        -2.6150   -0.2280   -4.8860 hc        1 MOL      0.028401
    103 H44        -0.8150   -1.9350   -4.9880 hc        1 MOL      0.040898
    104 H45        -0.0740   -0.4400   -4.4220 hc        1 MOL      0.040898
    105 H46        -0.3710   -1.8550   -3.3600 hc        1 MOL      0.040898
    106 H47        -1.2360    1.0860   -3.5680 hc        1 MOL      0.040898
    107 H48        -2.7090    1.2250   -2.8840 hc        1 MOL      0.040898
    108 H49        -1.5020    0.1690   -2.0210 hc        1 MOL      0.040898
    109 N10        -5.2810   -1.3970   -2.3200 n         1 MOL     -0.242459
    110 C35        -6.7300   -1.0420   -2.1650 c3        1 MOL      0.082245
    111 C36        -6.9520    0.3210   -1.3720 c         1 MOL      0.538191
    112 O17        -8.0710    0.7830   -1.3360 o         1 MOL     -0.528377
    113 C37        -7.5330   -2.1890   -1.4730 c3        1 MOL     -0.278941
    114 C38        -8.3300   -3.1290   -2.4080 c         1 MOL      0.625782
    115 N11        -8.5980   -2.8810   -3.6880 n         1 MOL     -0.738139
    116 O18        -8.8380   -4.1450   -1.9740 o         1 MOL     -0.545745
    117 H50        -4.7300   -1.5710   -1.4960 hn        1 MOL      0.201449
    118 H51        -7.1380   -0.8550   -3.1500 h1        1 MOL      0.061111
    119 H52        -8.1680   -1.6860   -0.7520 hc        1 MOL      0.112668
    120 H53        -6.8450   -2.8600   -0.9650 hc        1 MOL      0.112668
    121 H54        -8.3230   -2.0490   -4.1750 hn        1 MOL      0.345121
    122 H55        -9.2590   -3.5470   -4.0770 hn        1 MOL      0.345121
    123 N12        -5.8380    0.9230   -0.7750 n         1 MOL     -0.542028
    124 C39        -5.8280    2.0030    0.1770 c3        1 MOL      0.321053
    125 C40        -4.5170    2.8220    0.1590 c         1 MOL      0.314138
    126 O19        -3.4750    2.3280   -0.2410 o         1 MOL     -0.358980
    127 C41        -5.9820    1.4120    1.5460 c3        1 MOL      0.010012
    128 C42        -7.2310    0.5970    1.7630 ca        1 MOL      0.012222
    129 C43        -8.4230    1.2860    1.9540 ca        1 MOL     -0.096969
    130 C44        -7.1800   -0.7720    1.9680 ca        1 MOL     -0.096969
    131 C45        -9.5620    0.5830    2.4170 ca        1 MOL     -0.294959
    132 C46        -8.3000   -1.5040    2.3820 ca        1 MOL     -0.294959
    133 C47        -9.4890   -0.8500    2.6830 ca        1 MOL      0.338147
    134 O20       -10.4560   -1.5290    3.3340 oh        1 MOL     -0.441309
    135 H56        -4.9520    0.4560   -0.9210 hn        1 MOL      0.186217
    136 H57        -6.6630    2.6760    0.0140 h1        1 MOL      0.013495
    137 H58        -6.0050    2.2110    2.2880 hc        1 MOL      0.015985
    138 H59        -5.0600    0.8490    1.7150 hc        1 MOL      0.015985
    139 H60        -8.5060    2.3400    1.7130 ha        1 MOL      0.106522
    140 H61        -6.2890   -1.3220    1.7210 ha        1 MOL      0.106522
    141 H62       -10.4810    1.0730    2.7050 ha        1 MOL      0.146522
    142 H63        -8.2360   -2.5700    2.5780 ha        1 MOL      0.146522
    143 H64       -11.0860   -0.8270    3.5110 ho        1 MOL      0.327565
    144 N13        -4.6260    4.0500    0.6760 n         1 MOL     -0.546351
    145 C48        -3.5940    4.9740    1.2710 c3        1 MOL      0.185681
    146 C49        -2.3110    5.4750    0.4540 c         1 MOL      0.300731
    147 O21        -1.7770    6.5580    0.6290 o         1 MOL     -0.518662
    148 C50        -3.1940    4.5170    2.6330 c3        1 MOL      0.091261
    149 C51        -4.1820    4.6460    3.8390 c3        1 MOL     -0.230790
    150 C52        -3.3760    4.3630    5.1450 c         1 MOL      0.657237
    151 O22        -3.5450    3.2910    5.7650 o         1 MOL     -0.696291
    152 O23        -2.5440    5.2760    5.4330 o         1 MOL     -0.696291
    153 H65        -5.5760    4.2070    0.9820 hn        1 MOL      0.294233
    154 H66        -4.1390    5.9200    1.3960 h1        1 MOL      0.029377
    155 H67        -2.3550    5.1240    2.9830 hc        1 MOL      0.034302
    156 H68        -2.9410    3.4670    2.4600 hc        1 MOL      0.034302
    157 H69        -4.9240    3.8560    3.6840 hc        1 MOL      0.001628
    158 H70        -4.6710    5.6180    3.7360 hc        1 MOL      0.001628
    159 N14        -1.8330    4.5850   -0.3910 n         1 MOL     -0.138398
    160 C53        -0.6250    4.8870   -1.2600 c3        1 MOL     -0.283712
    161 C54        -0.8910    5.9640   -2.3190 c         1 MOL      0.508240
    162 O24        -0.0040    6.3110   -3.0530 o         1 MOL     -0.527441
    163 C55        -0.0570    3.5890   -1.9400 c3        1 MOL     -0.115684
    164 C56         0.3240    2.4560   -0.8760 c3        1 MOL     -0.086568
    165 C57         1.3530    2.7550    0.2700 c         1 MOL      0.693438
    166 O25         0.8360    3.1830    1.3290 o         1 MOL     -0.660612
    167 O26         2.5540    2.3950    0.0840 o         1 MOL     -0.660612
    168 H71        -2.2690    3.6800   -0.4700 hn        1 MOL      0.145811
    169 H72         0.1580    5.1570   -0.5490 h1        1 MOL      0.227150
    170 H73         0.9230    3.8940   -2.2930 hc        1 MOL      0.072806
    171 H74        -0.6800    3.1940   -2.7410 hc        1 MOL      0.072806
    172 H75         0.8070    1.6630   -1.4540 hc        1 MOL      0.025323
    173 H76        -0.5930    2.0400   -0.4490 hc        1 MOL      0.025323
    174 N15        -2.1450    6.4350   -2.4400 n         1 MOL     -0.165604
    175 C58        -2.7270    7.2410   -3.4750 c3        1 MOL     -0.240220
    176 H77        -3.8140    7.1930   -3.4040 h1        1 MOL      0.089234
    177 H78        -2.4020    8.2760   -3.3570 h1        1 MOL      0.089234
    178 H79        -2.4110    6.8680   -4.4490 h1        1 MOL      0.089234
    179 H80        -2.8520    6.0340   -1.8400 hn        1 MOL      0.208171
    180 Ca1         4.7150    1.7160    1.2660 Ca        1 MOL      1.729664
    181 O27         3.9000    1.4230    3.9680 oh        1 MOL     -0.955210
    182 H81         3.2180    2.0810    4.1090 ho        1 MOL      0.451078
    183 H82         4.2700    1.2620    4.8330 ho        1 MOL      0.451078
    184 O28         4.0710    4.3800    1.9730 oh        1 MOL     -0.955210
    185 H83         4.8170    4.9780    2.0190 ho        1 MOL      0.451078
    186 H84         3.3930    4.7950    2.5060 ho        1 MOL      0.451078
    187 O29         6.5230    0.0580    2.2300 oh        1 MOL     -0.955210
    188 H85         6.1970   -0.2380    3.0900 ho        1 MOL      0.451078
    189 H86         7.4730    0.0290    2.3030 ho        1 MOL      0.451078
@<TRIPOS>BOND
     1    1    2 1   
     2    1    4 1   
     3    1    5 1   
     4    1    6 1   
     5    2    3 2   
     6    2    7 1   
     7    7    8 1   
     8    7   15 1   
     9    8    9 1   
    10    8   11 1   
    11    8   16 1   
    12    9   10 2   
    13    9   19 1   
    14   11   12 1   
    15   11   17 1   
    16   11   18 1   
    17   12   13 1   
    18   12   14 1   
    19   19   20 1   
    20   19   27 1   
    21   20   21 1   
    22   20   23 1   
    23   20   28 1   
    24   21   22 2   
    25   21   38 1   
    26   23   24 1   
    27   23   25 1   
    28   23   29 1   
    29   24   26 1   
    30   24   30 1   
    31   24   31 1   
    32   25   32 1   
    33   25   33 1   
    34   25   34 1   
    35   26   35 1   
    36   26   36 1   
    37   26   37 1   
    38   38   39 1   
    39   38   46 1   
    40   39   40 1   
    41   39   42 1   
    42   39   47 1   
    43   40   41 2   
    44   40   50 1   
    45   42   43 1   
    46   42   48 1   
    47   42   49 1   
    48   43   44 1   
    49   43   45 1   
    50   50   51 1   
    51   50   54 1   
    52   51   52 1   
    53   51   55 1   
    54   51   56 1   
    55   52   53 2   
    56   52   57 1   
    57   57   58 1   
    58   57   65 1   
    59   58   59 1   
    60   58   61 1   
    61   58   66 1   
    62   59   60 2   
    63   59   69 1   
    64   61   62 1   
    65   61   67 1   
    66   61   68 1   
    67   62   63 1   
    68   62   64 1   
    69   69   70 1   
    70   69   73 1   
    71   70   71 1   
    72   70   74 1   
    73   70   75 1   
    74   71   72 2   
    75   71   76 1   
    76   76   77 1   
    77   76   85 1   
    78   77   78 1   
    79   77   80 1   
    80   77   86 1   
    81   78   79 2   
    82   78   93 1   
    83   80   81 1   
    84   80   87 1   
    85   80   88 1   
    86   81   82 1   
    87   81   89 1   
    88   81   90 1   
    89   82   83 1   
    90   82   84 2   
    91   83   91 1   
    92   83   92 1   
    93   93   94 1   
    94   93  100 1   
    95   94   95 1   
    96   94   97 1   
    97   94  101 1   
    98   95   96 2   
    99   95  109 1   
   100   97   98 1   
   101   97   99 1   
   102   97  102 1   
   103   98  103 1   
   104   98  104 1   
   105   98  105 1   
   106   99  106 1   
   107   99  107 1   
   108   99  108 1   
   109  109  110 1   
   110  109  117 1   
   111  110  111 1   
   112  110  113 1   
   113  110  118 1   
   114  111  112 2   
   115  111  123 1   
   116  113  114 1   
   117  113  119 1   
   118  113  120 1   
   119  114  115 1   
   120  114  116 2   
   121  115  121 1   
   122  115  122 1   
   123  123  124 1   
   124  123  135 1   
   125  124  125 1   
   126  124  127 1   
   127  124  136 1   
   128  125  126 2   
   129  125  144 1   
   130  127  128 1   
   131  127  137 1   
   132  127  138 1   
   133  128  129 ar  
   134  128  130 ar  
   135  129  131 ar  
   136  129  139 1   
   137  130  132 ar  
   138  130  140 1   
   139  131  133 ar  
   140  131  141 1   
   141  132  133 ar  
   142  132  142 1   
   143  133  134 1   
   144  134  143 1   
   145  144  145 1   
   146  144  153 1   
   147  145  146 1   
   148  145  148 1   
   149  145  154 1   
   150  146  147 2   
   151  146  159 1   
   152  148  149 1   
   153  148  155 1   
   154  148  156 1   
   155  149  150 1   
   156  149  157 1   
   157  149  158 1   
   158  150  151 1   
   159  150  152 1   
   160  159  160 1   
   161  159  168 1   
   162  160  161 1   
   163  160  163 1   
   164  160  169 1   
   165  161  162 2   
   166  161  174 1   
   167  163  164 1   
   168  163  170 1   
   169  163  171 1   
   170  164  165 1   
   171  164  172 1   
   172  164  173 1   
   173  165  166 1   
   174  165  167 1   
   175  174  175 1   
   176  174  179 1   
   177  175  176 1   
   178  175  177 1   
   179  175  178 1   
   180  181  182 1   
   181  181  183 1   
   182  184  185 1   
   183  184  186 1   
   184  187  188 1   
   185  187  189 1   
@<TRIPOS>SUBSTRUCTURE
     1 MOL         1 TEMP              0 ****  ****    0 ROOT
