@<TRIPOS>MOLECULE
MOL
  198   191     1     0     0
SMALL
resp


@<TRIPOS>ATOM
      1 C1         -2.5290    6.2990    1.0980 c3        1 MOL     -0.450599
      2 C2         -3.9710    5.9600    0.7010 c         1 MOL      0.770957
      3 O1         -4.4580    6.3100   -0.3260 o         1 MOL     -0.570524
      4 H1         -2.2000    5.6200    1.8840 hc        1 MOL      0.123118
      5 H2         -1.8790    6.1930    0.2300 hc        1 MOL      0.123118
      6 H3         -2.4840    7.3250    1.4640 hc        1 MOL      0.123118
      7 N1         -4.7870    5.2920    1.5680 n         1 MOL     -0.830538
      8 C3         -6.2000    4.8440    1.4400 c3        1 MOL      0.535073
      9 C4         -6.4530    3.8390    0.2430 c         1 MOL      0.376713
     10 O2         -5.5160    3.5830   -0.5370 o         1 MOL     -0.425176
     11 C5         -7.1220    6.0900    1.4290 c3        1 MOL     -0.301098
     12 C6         -8.5670    5.7240    1.8860 c         1 MOL      0.748780
     13 O3         -8.7200    4.7870    2.6900 o         1 MOL     -0.719879
     14 O4         -9.5340    6.3790    1.4320 o         1 MOL     -0.719879
     15 H4         -4.3400    5.0510    2.4410 hn        1 MOL      0.327821
     16 H5         -6.4710    4.2520    2.3160 h1        1 MOL     -0.026184
     17 H6         -7.1490    6.6090    0.4640 hc        1 MOL      0.066012
     18 H7         -6.8770    6.8340    2.1940 hc        1 MOL      0.066012
     19 N2         -7.6290    3.2730    0.2110 n         1 MOL     -0.490599
     20 C7         -8.3060    2.7350   -0.8600 c3        1 MOL      0.161909
     21 C8         -7.5160    1.5900   -1.5230 c         1 MOL      0.487752
     22 O5         -7.5450    1.4370   -2.7310 o         1 MOL     -0.531942
     23 C9         -8.8380    3.7680   -1.8480 c3        1 MOL     -0.117516
     24 C10        -9.8980    4.7000   -1.2570 c3        1 MOL      0.089681
     25 C11       -10.6520    5.5020   -2.3340 c3        1 MOL     -0.306104
     26 C12       -11.8690    6.2750   -1.6530 c3        1 MOL      0.046218
     27 N3        -11.3270    7.2570   -0.7350 n4        1 MOL     -0.265395
     28 H8         -8.2250    3.4220    1.0130 hn        1 MOL      0.291046
     29 H9         -9.1810    2.1730   -0.5170 h1        1 MOL      0.016146
     30 H10        -9.2870    3.3040   -2.7250 hc        1 MOL      0.058081
     31 H11        -7.9670    4.2820   -2.2420 hc        1 MOL      0.058081
     32 H12        -9.3010    5.4330   -0.7270 hc        1 MOL      0.023676
     33 H13       -10.5570    4.1560   -0.5840 hc        1 MOL      0.023676
     34 H14       -11.1020    4.8030   -3.0380 hc        1 MOL      0.112992
     35 H15        -9.9840    6.2870   -2.6810 hc        1 MOL      0.112992
     36 H16       -12.5400    5.5990   -1.1190 hx        1 MOL      0.078178
     37 H17       -12.4010    6.6840   -2.5050 hx        1 MOL      0.078178
     38 H18       -11.9700    7.9610   -0.3990 hn        1 MOL      0.284448
     39 H19       -10.9100    6.7860    0.0630 hn        1 MOL      0.284448
     40 H20       -10.5460    7.8370   -1.0080 hn        1 MOL      0.284448
     41 N4         -6.7390    0.9550   -0.6980 n         1 MOL     -0.476533
     42 C13        -5.9110   -0.2220   -0.9960 c3        1 MOL      0.191561
     43 C14        -5.5810   -0.9880    0.2900 c         1 MOL      0.365101
     44 O6         -4.8390   -0.4210    1.0370 o         1 MOL     -0.462476
     45 C15        -4.5940    0.1150   -1.7970 c3        1 MOL     -0.444273
     46 C16        -3.7500   -1.1140   -2.2750 c         1 MOL      1.015571
     47 O7         -2.5700   -0.9350   -2.4810 o         1 MOL     -0.852271
     48 O8         -4.1750   -2.2640   -2.3170 o         1 MOL     -0.852271
     49 H21        -6.6790    1.4130    0.2110 hn        1 MOL      0.265952
     50 H22        -6.5640   -0.8130   -1.6400 h1        1 MOL      0.042004
     51 H23        -4.0440    0.7240   -1.0680 hc        1 MOL      0.145702
     52 H24        -4.8090    0.7800   -2.6360 hc        1 MOL      0.145702
     53 N5         -6.1290   -2.1850    0.6000 n         1 MOL     -0.303553
     54 C17        -6.9270   -3.0550   -0.2900 c3        1 MOL     -0.082620
     55 C18        -6.4180   -4.5370   -0.3720 c         1 MOL      0.505966
     56 O9         -7.1460   -5.4820   -0.1070 o         1 MOL     -0.567086
     57 H25        -5.8610   -2.4970    1.5190 hn        1 MOL      0.228708
     58 H26        -6.7520   -2.7080   -1.3130 h1        1 MOL      0.086161
     59 H27        -7.9770   -3.0570    0.0180 h1        1 MOL      0.086161
     60 N6         -5.1930   -4.7160   -0.6930 n         1 MOL     -0.035992
     61 C19        -4.4220   -5.9440   -0.4430 c3        1 MOL     -0.169636
     62 C20        -2.9180   -5.6390   -0.1400 c         1 MOL      0.357883
     63 O10        -2.4610   -4.5600   -0.4360 o         1 MOL     -0.633575
     64 C21        -4.4650   -6.8690   -1.6670 c3        1 MOL      0.026784
     65 C22        -4.4100   -6.1780   -3.0110 c         1 MOL      0.462425
     66 O11        -5.4120   -6.0760   -3.7780 o         1 MOL     -0.621650
     67 O12        -3.3800   -5.5830   -3.3130 o         1 MOL     -0.621650
     68 H28        -4.6390   -3.8850   -0.8580 hn        1 MOL      0.180813
     69 H29        -4.7630   -6.4930    0.4330 h1        1 MOL      0.096466
     70 H30        -5.3700   -7.4540   -1.5550 hc        1 MOL      0.020088
     71 H31        -3.7040   -7.6340   -1.6400 hc        1 MOL      0.020088
     72 N7         -2.1450   -6.5680    0.4430 n         1 MOL     -0.370541
     73 C23        -0.7880   -6.2990    0.7920 c3        1 MOL      0.159013
     74 C24        -0.4320   -5.2430    1.8800 c         1 MOL      0.360426
     75 O13         0.5780   -5.4820    2.6430 o         1 MOL     -0.540427
     76 H32        -2.5910   -7.4600    0.5790 hn        1 MOL      0.306503
     77 H33        -0.2670   -5.8910   -0.0680 h1        1 MOL      0.016515
     78 H34        -0.2540   -7.2200    1.0290 h1        1 MOL      0.016515
     79 N8         -1.2670   -4.2910    2.1430 n         1 MOL     -0.353919
     80 C25        -1.0340   -3.3010    3.2140 c3        1 MOL      0.175402
     81 C26        -0.3710   -2.0880    2.7060 c         1 MOL      0.551120
     82 O14        -0.3210   -1.7990    1.5070 o         1 MOL     -0.524008
     83 C27        -2.2240   -3.0860    4.1060 c3        1 MOL      0.107468
     84 C28        -3.5130   -2.5780    3.4320 c3        1 MOL     -0.064912
     85 O15        -2.7690   -4.2810    4.7100 oh        1 MOL     -0.560586
     86 H35        -1.9330   -4.0500    1.4230 hn        1 MOL      0.345079
     87 H36        -0.2370   -3.6600    3.8590 h1        1 MOL      0.028603
     88 H37        -1.9400   -2.3570    4.8700 h1        1 MOL      0.034915
     89 H38        -1.9920   -4.5590    5.2040 ho        1 MOL      0.370901
     90 H39        -3.6340   -3.2230    2.5590 hc        1 MOL      0.033853
     91 H40        -4.3940   -2.5670    4.0820 hc        1 MOL      0.033853
     92 H41        -3.4060   -1.5740    3.0390 hc        1 MOL      0.033853
     93 N9          0.1460   -1.2370    3.6000 n         1 MOL     -0.413285
     94 C29         0.4750    0.1790    3.2580 c3        1 MOL     -0.078298
     95 C30         1.7010    0.4170    2.3480 c         1 MOL      0.522742
     96 O16         1.7970    1.3810    1.5810 o         1 MOL     -0.509360
     97 C31         0.5800    0.9900    4.6550 c3        1 MOL      0.034876
     98 C32        -0.7640    0.8840    5.3080 c3        1 MOL     -0.087231
     99 C33         1.0160    2.4280    4.3880 c3        1 MOL     -0.144521
    100 C34        -0.7610    1.5130    6.7230 c3        1 MOL     -0.121172
    101 H42         0.2800   -1.4640    4.5690 hn        1 MOL      0.258734
    102 H43        -0.3750    0.5770    2.6980 h1        1 MOL      0.140727
    103 H44         1.2310    0.4930    5.3800 hc        1 MOL      0.032524
    104 H45        -1.0660   -0.1640    5.4010 hc        1 MOL      0.035883
    105 H46        -1.5390    1.4280    4.7800 hc        1 MOL      0.035883
    106 H47         0.7580    3.1620    5.1520 hc        1 MOL      0.049529
    107 H48         2.0990    2.3500    4.2800 hc        1 MOL      0.049529
    108 H49         0.5740    2.7250    3.4420 hc        1 MOL      0.049529
    109 H50        -0.9160    2.5920    6.6840 hc        1 MOL      0.042718
    110 H51        -1.6560    1.1970    7.2720 hc        1 MOL      0.042718
    111 H52         0.0890    1.3030    7.3660 hc        1 MOL      0.042718
    112 N10         2.5420   -0.6080    2.2940 n         1 MOL     -0.326620
    113 C35         3.6350   -0.7620    1.3160 c3        1 MOL     -0.037095
    114 C36         4.7990   -1.4410    2.0940 c         1 MOL      0.594985
    115 O17         4.6300   -2.1620    3.0280 o         1 MOL     -0.490451
    116 C37         3.2390   -1.6520    0.0670 c3        1 MOL      0.256270
    117 C38         2.8390   -3.1160    0.5280 c3        1 MOL     -0.414549
    118 O18         2.2750   -1.0380   -0.7110 oh        1 MOL     -0.553414
    119 H53         2.5760   -1.3230    3.0040 hn        1 MOL      0.188787
    120 H54         3.9400    0.2450    1.0140 h1        1 MOL      0.059045
    121 H55         4.1430   -1.7420   -0.5320 h1        1 MOL     -0.007889
    122 H56         2.7290   -0.2850   -1.0940 ho        1 MOL      0.410806
    123 H57         2.8050   -3.6890   -0.3970 hc        1 MOL      0.115408
    124 H58         3.6710   -3.5100    1.1180 hc        1 MOL      0.115408
    125 H59         1.8520   -3.1420    0.9910 hc        1 MOL      0.115408
    126 N11         5.9740   -1.1910    1.5510 n         1 MOL     -0.495402
    127 C39         7.2060   -1.8200    2.1740 c3        1 MOL     -0.158329
    128 C40         8.3830   -0.8890    1.8810 c         1 MOL      0.762643
    129 O19         9.0360   -0.4770    2.8050 o         1 MOL     -0.581698
    130 C41         7.3550   -3.2760    1.7170 c3        1 MOL      0.290491
    131 C42         8.1180   -4.2410    2.6920 c3        1 MOL     -0.249017
    132 O20         7.9850   -3.3570    0.4450 oh        1 MOL     -0.612286
    133 H60         6.1060   -0.5320    0.7990 hn        1 MOL      0.260964
    134 H61         7.0320   -1.7040    3.2390 h1        1 MOL      0.133624
    135 H62         6.3690   -3.7330    1.6550 h1        1 MOL      0.046274
    136 H63         7.4470   -4.0350    0.0170 ho        1 MOL      0.389606
    137 H64         7.6670   -4.1620    3.6840 hc        1 MOL      0.071982
    138 H65         8.1400   -5.2920    2.4440 hc        1 MOL      0.071982
    139 H66         9.1240   -3.8190    2.7630 hc        1 MOL      0.071982
    140 N12         8.5720   -0.4720    0.6330 n         1 MOL     -0.437855
    141 C43         9.4900    0.5930    0.2080 c3        1 MOL     -0.001881
    142 C44         8.8060    1.5410   -0.7850 c         1 MOL      0.553757
    143 O21         8.1730    1.0870   -1.7060 o         1 MOL     -0.536903
    144 C45        10.7710   -0.1430   -0.2970 c3        1 MOL     -0.286399
    145 C46        11.9650    0.8580   -0.6500 c3        1 MOL      0.097781
    146 C47        12.9170    0.3470   -1.8070 c3        1 MOL     -0.102719
    147 C48        14.0330    1.2830   -2.1170 c3        1 MOL      0.071014
    148 N13        14.6170    1.1040   -3.4360 n4        1 MOL     -0.224167
    149 H67         8.0410   -0.8320   -0.1580 hn        1 MOL      0.259075
    150 H68         9.8230    1.1000    1.1250 h1        1 MOL      0.079074
    151 H69        10.5970   -0.6680   -1.2390 hc        1 MOL      0.119542
    152 H70        11.2030   -0.8950    0.3710 hc        1 MOL      0.119542
    153 H71        12.5800    1.1820    0.1960 hc        1 MOL      0.017110
    154 H72        11.5180    1.8090   -0.9340 hc        1 MOL      0.017110
    155 H73        12.4070    0.1250   -2.7460 hc        1 MOL      0.040501
    156 H74        13.2930   -0.6460   -1.5260 hc        1 MOL      0.040501
    157 H75        14.6930    1.2600   -1.2530 hx        1 MOL      0.061060
    158 H76        13.6140    2.2840   -2.1740 hx        1 MOL      0.061060
    159 H77        14.0420    1.4760   -4.1870 hn        1 MOL      0.248271
    160 H78        15.4480    1.6510   -3.5740 hn        1 MOL      0.248271
    161 H79        14.7330    0.1270   -3.6580 hn        1 MOL      0.248271
    162 N14         8.8910    2.7820   -0.6130 n         1 MOL     -0.411797
    163 C49         8.2760    3.7060   -1.6170 c3        1 MOL      0.130002
    164 C50         6.7060    3.7250   -1.6770 c         1 MOL      0.301523
    165 O22         6.1620    3.8570   -2.7430 o         1 MOL     -0.481557
    166 C51         8.7600    5.1790   -1.2780 c3        1 MOL     -0.319808
    167 C52         7.9910    6.2420   -2.1000 c3        1 MOL     -0.053985
    168 C53         8.5580    7.6350   -2.0940 c         1 MOL      0.641304
    169 O23         8.2870    8.3680   -3.1310 o         1 MOL     -0.647532
    170 O24         9.1840    7.9630   -1.1070 o         1 MOL     -0.647532
    171 H80         9.5340    3.1490    0.0740 hn        1 MOL      0.259524
    172 H81         8.6860    3.3890   -2.5760 h1        1 MOL      0.077058
    173 H82         9.8320    5.2090   -1.4270 hc        1 MOL      0.102720
    174 H83         8.5870    5.3300   -0.2100 hc        1 MOL      0.102720
    175 H84         6.9790    6.2630   -1.7130 hc        1 MOL      0.056678
    176 H85         7.8230    5.8920   -3.1220 hc        1 MOL      0.056678
    177 N15         5.9060    3.6380   -0.6130 n         1 MOL     -0.275659
    178 C54         6.2340    3.9630    0.7850 c3        1 MOL     -0.020851
    179 H86         6.6940    3.0970    1.2610 h1        1 MOL      0.048407
    180 H87         6.9290    4.8030    0.8090 h1        1 MOL      0.048407
    181 H88         5.3220    4.2290    1.3190 h1        1 MOL      0.048407
    182 H89         4.9320    3.5700   -0.8680 hn        1 MOL      0.280008
    183 Ca1        -1.8530   -3.5100   -2.8680 Ca        1 MOL      1.677312
    184 O25        -2.7450   -2.3710   -5.1200 oh        1 MOL     -0.754541
    185 H90        -3.2690   -1.5720   -5.2000 ho        1 MOL      0.381909
    186 H91        -2.7510   -2.7460   -5.9950 ho        1 MOL      0.381909
    187 O26         0.2860   -5.3860   -2.8060 oh        1 MOL     -0.754541
    188 H92         1.2220   -5.2330   -2.6730 ho        1 MOL      0.381909
    189 H93         0.1340   -6.2730   -2.5090 ho        1 MOL      0.381909
    190 O27         0.6600   -2.2910   -4.3440 oh        1 MOL     -0.754541
    191 H94         0.3390   -1.4440   -4.6530 ho        1 MOL      0.381909
    192 H95         1.4540   -2.0850   -3.8550 ho        1 MOL      0.381909
    193 O28         0.1680   -2.5090   -1.2720 oh        1 MOL     -0.754541
    194 H96         1.0000   -2.0350   -1.2500 ho        1 MOL      0.381909
    195 H97        -0.0910   -2.5680   -0.3500 ho        1 MOL      0.381909
    196 O29        -1.1440   -4.8870   -5.6340 oh        1 MOL     -0.754541
    197 H98        -0.3020   -5.3000   -5.8070 ho        1 MOL      0.381909
    198 H99        -1.6780   -5.5820   -5.2520 ho        1 MOL      0.381909
@<TRIPOS>BOND
     1    1    2 1   
     2    1    4 1   
     3    1    5 1   
     4    1    6 1   
     5    2    3 2   
     6    2    7 1   
     7    7    8 1   
     8    7   15 1   
     9    8    9 1   
    10    8   11 1   
    11    8   16 1   
    12    9   10 2   
    13    9   19 1   
    14   11   12 1   
    15   11   17 1   
    16   11   18 1   
    17   12   13 1   
    18   12   14 1   
    19   19   20 1   
    20   19   28 1   
    21   20   21 1   
    22   20   23 1   
    23   20   29 1   
    24   21   22 2   
    25   21   41 1   
    26   23   24 1   
    27   23   30 1   
    28   23   31 1   
    29   24   25 1   
    30   24   32 1   
    31   24   33 1   
    32   25   26 1   
    33   25   34 1   
    34   25   35 1   
    35   26   27 1   
    36   26   36 1   
    37   26   37 1   
    38   27   38 1   
    39   27   39 1   
    40   27   40 1   
    41   41   42 1   
    42   41   49 1   
    43   42   43 1   
    44   42   45 1   
    45   42   50 1   
    46   43   44 2   
    47   43   53 1   
    48   45   46 1   
    49   45   51 1   
    50   45   52 1   
    51   46   47 1   
    52   46   48 1   
    53   53   54 1   
    54   53   57 1   
    55   54   55 1   
    56   54   58 1   
    57   54   59 1   
    58   55   56 2   
    59   55   60 1   
    60   60   61 1   
    61   60   68 1   
    62   61   62 1   
    63   61   64 1   
    64   61   69 1   
    65   62   63 2   
    66   62   72 1   
    67   64   65 1   
    68   64   70 1   
    69   64   71 1   
    70   65   66 1   
    71   65   67 1   
    72   72   73 1   
    73   72   76 1   
    74   73   74 1   
    75   73   77 1   
    76   73   78 1   
    77   74   75 2   
    78   74   79 1   
    79   79   80 1   
    80   79   86 1   
    81   80   81 1   
    82   80   83 1   
    83   80   87 1   
    84   81   82 2   
    85   81   93 1   
    86   83   84 1   
    87   83   85 1   
    88   83   88 1   
    89   84   90 1   
    90   84   91 1   
    91   84   92 1   
    92   85   89 1   
    93   93   94 1   
    94   93  101 1   
    95   94   95 1   
    96   94   97 1   
    97   94  102 1   
    98   95   96 2   
    99   95  112 1   
   100   97   98 1   
   101   97   99 1   
   102   97  103 1   
   103   98  100 1   
   104   98  104 1   
   105   98  105 1   
   106   99  106 1   
   107   99  107 1   
   108   99  108 1   
   109  100  109 1   
   110  100  110 1   
   111  100  111 1   
   112  112  113 1   
   113  112  119 1   
   114  113  114 1   
   115  113  116 1   
   116  113  120 1   
   117  114  115 2   
   118  114  126 1   
   119  116  117 1   
   120  116  118 1   
   121  116  121 1   
   122  117  123 1   
   123  117  124 1   
   124  117  125 1   
   125  118  122 1   
   126  126  127 1   
   127  126  133 1   
   128  127  128 1   
   129  127  130 1   
   130  127  134 1   
   131  128  129 2   
   132  128  140 1   
   133  130  131 1   
   134  130  132 1   
   135  130  135 1   
   136  131  137 1   
   137  131  138 1   
   138  131  139 1   
   139  132  136 1   
   140  140  141 1   
   141  140  149 1   
   142  141  142 1   
   143  141  144 1   
   144  141  150 1   
   145  142  143 2   
   146  142  162 1   
   147  144  145 1   
   148  144  151 1   
   149  144  152 1   
   150  145  146 1   
   151  145  153 1   
   152  145  154 1   
   153  146  147 1   
   154  146  155 1   
   155  146  156 1   
   156  147  148 1   
   157  147  157 1   
   158  147  158 1   
   159  148  159 1   
   160  148  160 1   
   161  148  161 1   
   162  162  163 1   
   163  162  171 1   
   164  163  164 1   
   165  163  166 1   
   166  163  172 1   
   167  164  165 2   
   168  164  177 1   
   169  166  167 1   
   170  166  173 1   
   171  166  174 1   
   172  167  168 1   
   173  167  175 1   
   174  167  176 1   
   175  168  169 1   
   176  168  170 1   
   177  177  178 1   
   178  177  182 1   
   179  178  179 1   
   180  178  180 1   
   181  178  181 1   
   182  184  185 1   
   183  184  186 1   
   184  187  188 1   
   185  187  189 1   
   186  190  191 1   
   187  190  192 1   
   188  193  194 1   
   189  193  195 1   
   190  196  197 1   
   191  196  198 1   
@<TRIPOS>SUBSTRUCTURE
     1 MOL         1 TEMP              0 ****  ****    0 ROOT
