@<TRIPOS>MOLECULE
MOL
  192   187     1     0     0
SMALL
resp


@<TRIPOS>ATOM
      1 C1          9.4650    0.9960    0.9660 c3        1 MOL     -0.617762
      2 C2          8.1540    0.4550    0.2600 c         1 MOL      0.717551
      3 O1          7.1660    0.1320    0.9640 o         1 MOL     -0.661848
      4 H1          9.8610    0.2300    1.6330 hc        1 MOL      0.158656
      5 H2         10.2120    1.2390    0.2100 hc        1 MOL      0.158656
      6 H3          9.2260    1.8910    1.5420 hc        1 MOL      0.158656
      7 N1          8.2090    0.2450   -0.9850 n         1 MOL     -0.550000
      8 C3          7.1910   -0.4650   -1.7920 c3        1 MOL      0.096568
      9 C4          6.9980   -1.9750   -1.4270 c         1 MOL      0.474332
     10 O2          6.9900   -2.8810   -2.2510 o         1 MOL     -0.513924
     11 C5          7.5650   -0.2300   -3.2790 c3        1 MOL     -0.210755
     12 C6          7.8050    1.2030   -3.7540 c         1 MOL      0.737905
     13 O3          8.7920    1.4470   -4.4530 o         1 MOL     -0.647336
     14 O4          6.9500    2.0760   -3.4620 o         1 MOL     -0.647336
     15 H4          9.0870    0.4880   -1.4150 hn        1 MOL      0.333297
     16 H5          6.2700    0.0820   -1.6170 h1        1 MOL      0.112650
     17 H6          6.7310   -0.6270   -3.8420 hc        1 MOL      0.056049
     18 H7          8.4320   -0.8470   -3.5110 hc        1 MOL      0.056049
     19 N2          6.7510   -2.3070   -0.1460 n         1 MOL     -0.228139
     20 C7          6.3540   -3.6250    0.3780 c3        1 MOL      0.249380
     21 C8          4.8360   -4.0070    0.2390 c         1 MOL      0.395220
     22 O5          4.5780   -5.1330   -0.1390 o         1 MOL     -0.538015
     23 C9          6.8180   -3.7360    1.8220 c3        1 MOL     -0.390605
     24 C10         8.3810   -3.8460    1.7630 c3        1 MOL      0.195951
     25 C11         8.9930   -3.6040    3.1020 c3        1 MOL     -0.024847
     26 C12        10.4920   -3.5160    3.1300 c3        1 MOL      0.005010
     27 N3         10.8950   -3.1590    4.5220 n4        1 MOL     -0.185758
     28 H8          6.7290   -1.5150    0.4760 hn        1 MOL      0.125846
     29 H9          6.9440   -4.3400   -0.2070 h1        1 MOL      0.027308
     30 H10         6.5690   -4.6710    2.3230 hc        1 MOL      0.099837
     31 H11         6.4780   -2.8900    2.4160 hc        1 MOL      0.099837
     32 H12         8.8700   -3.3130    0.9380 hc        1 MOL     -0.014878
     33 H13         8.5770   -4.8690    1.4530 hc        1 MOL     -0.014878
     34 H14         8.7580   -4.3930    3.8050 hc        1 MOL      0.015441
     35 H15         8.5050   -2.7230    3.5120 hc        1 MOL      0.015441
     36 H16        10.7380   -2.7470    2.3980 hx        1 MOL      0.071400
     37 H17        10.8770   -4.4910    2.8480 hx        1 MOL      0.071400
     38 H18        11.8360   -2.8800    4.7540 hn        1 MOL      0.245943
     39 H19        10.2630   -2.4290    4.8500 hn        1 MOL      0.245943
     40 H20        10.8250   -3.9630    5.1370 hn        1 MOL      0.245943
     41 N4          3.8770   -3.1520    0.4410 n         1 MOL     -0.239944
     42 C13         3.8650   -1.8510    1.1200 c3        1 MOL      0.008612
     43 C14         3.9140   -0.6330    0.1500 c         1 MOL      0.257597
     44 O6          3.9760   -0.7880   -1.1040 o         1 MOL     -0.426446
     45 C15         2.5600   -1.7900    1.8970 c3        1 MOL     -0.471512
     46 C16         1.3350   -2.1210    1.0490 c         1 MOL      0.898886
     47 O7          0.5770   -1.2980    0.5170 o         1 MOL     -0.738531
     48 O8          1.0180   -3.3670    0.9250 o         1 MOL     -0.738531
     49 H21         2.9480   -3.5500    0.3570 hn        1 MOL      0.287178
     50 H22         4.6730   -1.8390    1.8530 h1        1 MOL      0.120954
     51 H23         2.5940   -0.8280    2.4130 hc        1 MOL      0.094140
     52 H24         2.6630   -2.5030    2.7210 hc        1 MOL      0.094140
     53 N5          3.8650    0.5150    0.7220 n         1 MOL     -0.284763
     54 C17         4.0130    1.8110   -0.0400 c3        1 MOL      0.200195
     55 C18         2.7940    2.4530   -0.5590 c         1 MOL      0.351756
     56 O9          1.7520    1.7970   -0.5460 o         1 MOL     -0.378874
     57 H25         3.9710    0.5530    1.7280 hn        1 MOL      0.282899
     58 H26         4.6930    1.5980   -0.8660 h1        1 MOL      0.027074
     59 H27         4.4770    2.5280    0.6400 h1        1 MOL      0.027074
     60 N6          2.9960    3.5350   -1.3450 n         1 MOL     -0.424041
     61 C19         1.9830    4.3640   -2.0090 c3        1 MOL      0.312728
     62 C20         2.4150    5.8900   -1.9410 c         1 MOL      0.399347
     63 O10         3.5690    6.1590   -1.6250 o         1 MOL     -0.509599
     64 C21         1.8630    3.8470   -3.4570 c3        1 MOL     -0.400294
     65 C22         1.2810    2.4350   -3.4410 c         1 MOL      0.657900
     66 O11         0.2380    2.1910   -2.8090 o         1 MOL     -0.639788
     67 O12         1.9370    1.5260   -4.0110 o         1 MOL     -0.639788
     68 H28         3.8920    3.9920   -1.3140 hn        1 MOL      0.285509
     69 H29         0.9890    4.3420   -1.5560 h1        1 MOL      0.000655
     70 H30         2.8530    3.7880   -3.9170 hc        1 MOL      0.123537
     71 H31         1.2160    4.4850   -4.0590 hc        1 MOL      0.123537
     72 N7          1.4720    6.8180   -2.1080 n         1 MOL     -0.422447
     73 C23         0.0300    6.6010   -2.2090 c3        1 MOL     -0.012101
     74 C24        -0.6600    6.3980   -0.8670 c         1 MOL      0.622301
     75 O13        -0.4270    7.0050    0.1660 o         1 MOL     -0.535286
     76 H32         1.8310    7.7440   -1.8840 hn        1 MOL      0.306598
     77 H33        -0.1230    5.7360   -2.8670 h1        1 MOL      0.055428
     78 H34        -0.3870    7.4740   -2.7270 h1        1 MOL      0.055428
     79 N8         -1.6660    5.5350   -0.9690 n         1 MOL     -0.597814
     80 C25        -2.3550    4.9740    0.2020 c3        1 MOL      0.060424
     81 C26        -1.5070    3.7290    0.7430 c         1 MOL      0.735404
     82 O14        -0.9800    2.8960   -0.0070 o         1 MOL     -0.727422
     83 C27        -3.7650    4.5380   -0.1230 c3        1 MOL      0.635242
     84 C28        -4.8060    5.5970   -0.3090 c3        1 MOL     -0.355171
     85 O15        -4.4210    3.7540    0.8850 oh        1 MOL     -0.699094
     86 H35        -1.8210    5.0970   -1.8630 hn        1 MOL      0.295909
     87 H36        -2.4080    5.6540    1.0550 h1        1 MOL      0.042181
     88 H37        -3.7100    3.9480   -1.0350 h1        1 MOL     -0.074557
     89 H38        -5.1220    3.3940    0.3360 ho        1 MOL      0.358336
     90 H39        -4.9610    6.0390    0.6800 hc        1 MOL      0.076218
     91 H40        -4.3660    6.2780   -1.0360 hc        1 MOL      0.076218
     92 H41        -5.7260    5.2240   -0.7590 hc        1 MOL      0.076218
     93 N9         -1.4830    3.5790    2.0920 n         1 MOL     -0.627647
     94 C29        -0.8840    2.4780    2.8600 c3        1 MOL      0.134722
     95 C30        -1.4010    1.0340    2.4760 c         1 MOL      0.516679
     96 O16        -1.4140    0.5590    1.3560 o         1 MOL     -0.459063
     97 C31         0.6910    2.5660    2.8550 c3        1 MOL      0.585996
     98 C32         1.4270    3.9250    2.9210 c3        1 MOL     -0.026827
     99 C33         1.3160    1.6180    3.8790 c3        1 MOL     -0.615286
    100 C34         1.2270    4.6170    4.2920 c3        1 MOL     -0.324834
    101 H42        -1.9060    4.2850    2.6900 hn        1 MOL      0.311593
    102 H43        -1.1090    2.5800    3.9190 h1        1 MOL     -0.002898
    103 H44         1.0580    2.1710    1.9040 hc        1 MOL     -0.270540
    104 H45         1.0620    4.6340    2.1820 hc        1 MOL      0.037563
    105 H46         2.4740    3.8380    2.6570 hc        1 MOL      0.037563
    106 H47         2.3890    1.5540    3.7160 hc        1 MOL      0.128339
    107 H48         1.0600    1.8850    4.9120 hc        1 MOL      0.128339
    108 H49         0.8980    0.6070    3.7860 hc        1 MOL      0.128339
    109 H50         1.4910    5.6660    4.2180 hc        1 MOL      0.075639
    110 H51         0.1880    4.4890    4.6100 hc        1 MOL      0.075639
    111 H52         1.9160    4.2350    5.0500 hc        1 MOL      0.075639
    112 N10        -1.7330    0.3120    3.5960 n         1 MOL     -0.483557
    113 C35        -2.2100   -1.0840    3.4160 c3        1 MOL     -0.185411
    114 C36        -3.6220   -1.1210    2.7850 c         1 MOL      0.619114
    115 O17        -4.0190   -2.2370    2.5270 o         1 MOL     -0.550228
    116 C37        -2.2800   -1.8870    4.8090 c3        1 MOL      0.436047
    117 C38        -3.3230   -1.3810    5.8070 c3        1 MOL     -0.389342
    118 O18        -1.0210   -1.8210    5.5740 oh        1 MOL     -0.582913
    119 H53        -1.5860    0.6310    4.5400 hn        1 MOL      0.299898
    120 H54        -1.4830   -1.6240    2.8070 h1        1 MOL      0.120699
    121 H55        -2.4780   -2.9430    4.6120 h1        1 MOL      0.006316
    122 H56        -0.4470   -2.3550    5.0230 ho        1 MOL      0.368359
    123 H57        -3.1520   -1.7730    6.8070 hc        1 MOL      0.106526
    124 H58        -3.0260   -0.3350    5.9380 hc        1 MOL      0.106526
    125 H59        -4.3190   -1.4220    5.3810 hc        1 MOL      0.106526
    126 N11        -4.4180   -0.0760    2.6390 n         1 MOL     -0.393967
    127 C39        -5.8340   -0.1700    2.1290 c3        1 MOL     -0.102822
    128 C40        -5.9290   -0.6990    0.7060 c         1 MOL      0.698419
    129 O19        -5.2990   -0.0920   -0.1420 o         1 MOL     -0.589308
    130 C41        -6.6080    1.1470    2.3240 c3        1 MOL      0.649105
    131 C42        -7.9940    0.9490    1.9340 c3        1 MOL     -0.288399
    132 O20        -6.4020    1.5890    3.6980 oh        1 MOL     -0.685137
    133 H60        -4.0910    0.8760    2.7860 hn        1 MOL      0.191867
    134 H61        -6.3920   -0.8640    2.7470 h1        1 MOL      0.068125
    135 H62        -6.2190    1.9750    1.7330 h1        1 MOL     -0.076202
    136 H63        -5.6550    2.1960    3.7410 ho        1 MOL      0.408684
    137 H64        -8.1960    0.5420    0.9440 hc        1 MOL      0.044161
    138 H65        -8.4990    0.3120    2.6620 hc        1 MOL      0.044161
    139 H66        -8.4710    1.9170    2.0850 hc        1 MOL      0.044161
    140 N12        -6.7190   -1.7130    0.4730 n         1 MOL     -0.692224
    141 C43        -7.0940   -2.2630   -0.8870 c3        1 MOL      0.472678
    142 C44        -5.9010   -2.4930   -1.8240 c         1 MOL      0.355002
    143 O21        -5.8600   -2.1290   -3.0240 o         1 MOL     -0.500406
    144 C45        -8.2130   -1.3660   -1.5660 c3        1 MOL     -0.812035
    145 C46        -9.6480   -1.6830   -1.0730 c3        1 MOL      0.308072
    146 C47       -10.6490   -0.4610   -1.2940 c3        1 MOL     -0.208417
    147 C48       -12.0570   -0.7640   -0.6330 c3        1 MOL     -0.166906
    148 N13       -12.0640   -0.5810    0.8100 n4        1 MOL     -0.038212
    149 H67        -7.3780   -1.8570    1.2260 hn        1 MOL      0.307984
    150 H68        -7.4260   -3.2870   -0.7640 h1        1 MOL      0.004026
    151 H69        -8.2390   -1.7290   -2.5900 hc        1 MOL      0.260007
    152 H70        -8.0080   -0.3140   -1.3840 hc        1 MOL      0.260007
    153 H71        -9.6390   -1.9810   -0.0270 hc        1 MOL     -0.020287
    154 H72        -9.9660   -2.5540   -1.6310 hc        1 MOL     -0.020287
    155 H73       -10.6740   -0.2890   -2.3670 hc        1 MOL      0.102564
    156 H74       -10.2040    0.4630   -0.9060 hc        1 MOL      0.102564
    157 H75       -12.4170   -1.7750   -0.8430 hx        1 MOL      0.133979
    158 H76       -12.7510    0.0020   -0.9650 hx        1 MOL      0.133979
    159 H77       -11.4840   -1.2660    1.2740 hn        1 MOL      0.161127
    160 H78       -11.6520    0.3260    1.0030 hn        1 MOL      0.161127
    161 H79       -13.0130   -0.6290    1.1530 hn        1 MOL      0.161127
    162 N14        -4.8480   -3.1290   -1.2600 n         1 MOL     -0.349602
    163 C49        -3.5520   -3.2350   -1.8960 c3        1 MOL      0.347932
    164 C50        -2.4120   -2.8180   -0.8790 c         1 MOL      0.325007
    165 O22        -1.9020   -1.6850   -1.0770 o         1 MOL     -0.587175
    166 C51        -3.2980   -4.6100   -2.5030 c3        1 MOL     -0.066305
    167 C52        -4.0280   -4.7570   -3.8360 c3        1 MOL     -0.200250
    168 C53        -4.0680   -6.2240   -4.3440 c         1 MOL      0.709346
    169 O23        -4.8110   -7.0010   -3.7060 o         1 MOL     -0.636114
    170 O24        -3.4510   -6.4980   -5.3800 o         1 MOL     -0.636114
    171 H80        -4.9750   -3.3370   -0.2850 hn        1 MOL      0.231260
    172 H81        -3.5330   -2.5300   -2.7250 h1        1 MOL     -0.001696
    173 H82        -3.8720   -5.3400   -1.9340 hc        1 MOL      0.035521
    174 H83        -2.2650   -4.9300   -2.5130 hc        1 MOL      0.035521
    175 H84        -3.6320   -4.1220   -4.6410 hc        1 MOL      0.039510
    176 H85        -5.0630   -4.4470   -3.6840 hc        1 MOL      0.039510
    177 N15        -1.9790   -3.6080    0.0920 n         1 MOL     -0.228953
    178 C54        -2.3820   -4.9740    0.4340 c3        1 MOL     -0.046424
    179 H86        -2.6080   -5.0300    1.4980 h1        1 MOL      0.042151
    180 H87        -3.2670   -5.2470   -0.1400 h1        1 MOL      0.042151
    181 H88        -1.5700   -5.6620    0.1980 h1        1 MOL      0.042151
    182 H89        -1.2480   -3.2820    0.7130 hn        1 MOL      0.319660
    183 Ca1        -0.4850    0.4410   -1.0070 Ca        1 MOL      1.663230
    184 O25        -3.0660    0.9340   -1.5990 oh        1 MOL     -0.831426
    185 H90        -3.7270    0.5290   -1.0470 ho        1 MOL      0.408387
    186 H91        -3.4280    0.8780   -2.4820 ho        1 MOL      0.408387
    187 O26        -0.8260   -0.4550   -3.4610 oh        1 MOL     -0.831426
    188 H92        -1.0390   -1.3740   -3.6320 ho        1 MOL      0.408387
    189 H93        -1.1230    0.0080   -4.2360 ho        1 MOL      0.408387
    190 O27         1.8850   -0.5090   -2.4920 oh        1 MOL     -0.831426
    191 H94         2.6250   -0.3550   -1.8970 ho        1 MOL      0.408387
    192 H95         1.7670    0.3270   -2.9420 ho        1 MOL      0.408387
@<TRIPOS>BOND
     1    1    2 1   
     2    1    4 1   
     3    1    5 1   
     4    1    6 1   
     5    2    3 2   
     6    2    7 1   
     7    7    8 1   
     8    7   15 1   
     9    8    9 1   
    10    8   11 1   
    11    8   16 1   
    12    9   10 2   
    13    9   19 1   
    14   11   12 1   
    15   11   17 1   
    16   11   18 1   
    17   12   13 1   
    18   12   14 1   
    19   19   20 1   
    20   19   28 1   
    21   20   21 1   
    22   20   23 1   
    23   20   29 1   
    24   21   22 2   
    25   21   41 1   
    26   23   24 1   
    27   23   30 1   
    28   23   31 1   
    29   24   25 1   
    30   24   32 1   
    31   24   33 1   
    32   25   26 1   
    33   25   34 1   
    34   25   35 1   
    35   26   27 1   
    36   26   36 1   
    37   26   37 1   
    38   27   38 1   
    39   27   39 1   
    40   27   40 1   
    41   41   42 1   
    42   41   49 1   
    43   42   43 1   
    44   42   45 1   
    45   42   50 1   
    46   43   44 2   
    47   43   53 1   
    48   45   46 1   
    49   45   51 1   
    50   45   52 1   
    51   46   47 1   
    52   46   48 1   
    53   53   54 1   
    54   53   57 1   
    55   54   55 1   
    56   54   58 1   
    57   54   59 1   
    58   55   56 2   
    59   55   60 1   
    60   60   61 1   
    61   60   68 1   
    62   61   62 1   
    63   61   64 1   
    64   61   69 1   
    65   62   63 2   
    66   62   72 1   
    67   64   65 1   
    68   64   70 1   
    69   64   71 1   
    70   65   66 1   
    71   65   67 1   
    72   72   73 1   
    73   72   76 1   
    74   73   74 1   
    75   73   77 1   
    76   73   78 1   
    77   74   75 2   
    78   74   79 1   
    79   79   80 1   
    80   79   86 1   
    81   80   81 1   
    82   80   83 1   
    83   80   87 1   
    84   81   82 2   
    85   81   93 1   
    86   83   84 1   
    87   83   85 1   
    88   83   88 1   
    89   84   90 1   
    90   84   91 1   
    91   84   92 1   
    92   85   89 1   
    93   93   94 1   
    94   93  101 1   
    95   94   95 1   
    96   94   97 1   
    97   94  102 1   
    98   95   96 2   
    99   95  112 1   
   100   97   98 1   
   101   97   99 1   
   102   97  103 1   
   103   98  100 1   
   104   98  104 1   
   105   98  105 1   
   106   99  106 1   
   107   99  107 1   
   108   99  108 1   
   109  100  109 1   
   110  100  110 1   
   111  100  111 1   
   112  112  113 1   
   113  112  119 1   
   114  113  114 1   
   115  113  116 1   
   116  113  120 1   
   117  114  115 2   
   118  114  126 1   
   119  116  117 1   
   120  116  118 1   
   121  116  121 1   
   122  117  123 1   
   123  117  124 1   
   124  117  125 1   
   125  118  122 1   
   126  126  127 1   
   127  126  133 1   
   128  127  128 1   
   129  127  130 1   
   130  127  134 1   
   131  128  129 2   
   132  128  140 1   
   133  130  131 1   
   134  130  132 1   
   135  130  135 1   
   136  131  137 1   
   137  131  138 1   
   138  131  139 1   
   139  132  136 1   
   140  140  141 1   
   141  140  149 1   
   142  141  142 1   
   143  141  144 1   
   144  141  150 1   
   145  142  143 2   
   146  142  162 1   
   147  144  145 1   
   148  144  151 1   
   149  144  152 1   
   150  145  146 1   
   151  145  153 1   
   152  145  154 1   
   153  146  147 1   
   154  146  155 1   
   155  146  156 1   
   156  147  148 1   
   157  147  157 1   
   158  147  158 1   
   159  148  159 1   
   160  148  160 1   
   161  148  161 1   
   162  162  163 1   
   163  162  171 1   
   164  163  164 1   
   165  163  166 1   
   166  163  172 1   
   167  164  165 2   
   168  164  177 1   
   169  166  167 1   
   170  166  173 1   
   171  166  174 1   
   172  167  168 1   
   173  167  175 1   
   174  167  176 1   
   175  168  169 1   
   176  168  170 1   
   177  177  178 1   
   178  177  182 1   
   179  178  179 1   
   180  178  180 1   
   181  178  181 1   
   182  184  185 1   
   183  184  186 1   
   184  187  188 1   
   185  187  189 1   
   186  190  191 1   
   187  190  192 1   
@<TRIPOS>SUBSTRUCTURE
     1 MOL         1 TEMP              0 ****  ****    0 ROOT
