@<TRIPOS>MOLECULE
MOL
  181   177     1     0     0
SMALL
resp


@<TRIPOS>ATOM
      1 C1          4.6180   -1.3430    2.6670 c3        1 MOL     -0.393146
      2 C2          5.8500   -0.4710    2.3520 c         1 MOL      0.697475
      3 O1          5.8230    0.5680    1.6720 o         1 MOL     -0.592513
      4 H1          4.9310   -2.2230    3.2300 hc        1 MOL      0.105377
      5 H2          3.9070   -0.7680    3.2590 hc        1 MOL      0.105377
      6 H3          4.1470   -1.6570    1.7360 hc        1 MOL      0.105377
      7 N1          7.0120   -0.9450    2.7870 n         1 MOL     -0.490662
      8 C3          8.3430   -0.3550    2.4180 c3        1 MOL      0.068875
      9 C4          8.7320   -0.6410    0.9940 c         1 MOL      0.557307
     10 O2          8.8930   -1.8060    0.6130 o         1 MOL     -0.537113
     11 C5          9.4170   -0.8890    3.3830 c3        1 MOL     -0.346432
     12 C6          9.3650   -0.3850    4.8550 c         1 MOL      0.735052
     13 O3          9.9970   -1.0990    5.6660 o         1 MOL     -0.723272
     14 O4          8.8530    0.6970    5.2000 o         1 MOL     -0.723272
     15 H4          7.0190   -1.8700    3.1870 hn        1 MOL      0.313333
     16 H5          8.1880    0.7230    2.5390 h1        1 MOL      0.063882
     17 H6         10.4130   -0.7300    2.9550 hc        1 MOL      0.078296
     18 H7          9.3410   -1.9780    3.3970 hc        1 MOL      0.078296
     19 N2          8.9890    0.3040    0.0530 n         1 MOL     -0.509646
     20 C7          8.9430    0.1490   -1.3520 c3        1 MOL      0.233626
     21 C8          7.6160   -0.4270   -1.9620 c         1 MOL      0.482837
     22 O5          7.6500   -0.9310   -3.0860 o         1 MOL     -0.585788
     23 C9          9.1690    1.4790   -1.9550 c3        1 MOL     -0.228858
     24 H8          8.9980    1.2380    0.4380 hn        1 MOL      0.265661
     25 H9          9.7020   -0.5990   -1.6050 h1        1 MOL      0.051422
     26 H10         8.4950    2.3180   -1.7710 hc        1 MOL      0.052474
     27 H11        10.1370    1.8310   -1.6070 hc        1 MOL      0.052474
     28 H12         9.3020    1.2880   -3.0290 hc        1 MOL      0.052474
     29 N3          6.5640   -0.4410   -1.1990 n         1 MOL     -0.478646
     30 C10         5.2530   -0.9880   -1.6400 c3        1 MOL      0.428005
     31 C11         4.5870   -0.4230   -2.9290 c         1 MOL      0.207022
     32 O6          3.6130   -1.0870   -3.4480 o         1 MOL     -0.412040
     33 C12         5.3170   -2.5010   -1.3380 c3        1 MOL     -0.002115
     34 C13         3.9490   -3.1860   -1.1900 c         1 MOL      0.631604
     35 O7          3.6230   -4.1980   -1.8080 o         1 MOL     -0.754135
     36 O8          3.1100   -2.5550   -0.5290 o         1 MOL     -0.754135
     37 H13         6.5750   -0.0340   -0.2680 hn        1 MOL      0.202729
     38 H14         4.6310   -0.5860   -0.8380 h1        1 MOL     -0.004382
     39 H15         5.8840   -2.6280   -0.4070 hc        1 MOL     -0.012497
     40 H16         5.8420   -2.9690   -2.1680 hc        1 MOL     -0.012497
     41 N4          5.1630    0.6100   -3.5730 n         1 MOL     -0.104923
     42 C14         4.7020    1.1840   -4.8780 c3        1 MOL     -0.164129
     43 C15         3.3460    1.8590   -4.9360 c         1 MOL      0.578012
     44 O9          2.8320    2.1390   -6.0320 o         1 MOL     -0.574381
     45 H17         5.9310    1.0370   -3.0700 hn        1 MOL      0.182770
     46 H18         4.7390    0.4510   -5.6750 h1        1 MOL      0.097476
     47 H19         5.3670    1.9770   -5.2380 h1        1 MOL      0.097476
     48 N5          2.7580    2.2390   -3.8360 n         1 MOL     -0.498989
     49 C16         1.3700    2.6220   -3.7200 c3        1 MOL      0.285026
     50 C17         1.3470    3.7750   -2.6640 c         1 MOL      0.414929
     51 O10         1.9380    3.5860   -1.6310 o         1 MOL     -0.450056
     52 C18         0.4870    1.4210   -3.3640 c3        1 MOL      0.022034
     53 C19        -1.0300    1.5980   -3.4540 c         1 MOL      0.580351
     54 N6         -1.6500    2.6240   -2.8810 n         1 MOL     -0.861672
     55 O11        -1.6490    0.8670   -4.1970 o         1 MOL     -0.549685
     56 H20         3.2210    2.0730   -2.9500 hn        1 MOL      0.227921
     57 H21         1.0680    2.9720   -4.7100 h1        1 MOL     -0.003036
     58 H22         0.6870    1.0850   -2.3480 hc        1 MOL      0.020831
     59 H23         0.6790    0.6870   -4.1430 hc        1 MOL      0.020831
     60 H24        -1.1880    3.2010   -2.2030 hn        1 MOL      0.367778
     61 H25        -2.5950    2.8680   -3.1750 hn        1 MOL      0.367778
     62 N7          0.7300    4.9210   -2.9190 n         1 MOL     -0.509150
     63 C20         0.5550    5.9260   -1.9060 c3        1 MOL      0.179432
     64 C21        -0.6980    5.8820   -1.0530 c         1 MOL      0.427502
     65 O12        -1.5050    4.9320   -1.1990 o         1 MOL     -0.453822
     66 H26         0.1630    4.9450   -3.7530 hn        1 MOL      0.290264
     67 H27         0.5530    6.8910   -2.4110 h1        1 MOL      0.021312
     68 H28         1.3710    5.9960   -1.1870 h1        1 MOL      0.021312
     69 N8         -0.8350    6.7920   -0.0480 n         1 MOL     -0.315886
     70 C22        -2.0580    7.0000    0.7990 c3        1 MOL     -0.536501
     71 C23        -2.4510    5.8370    1.6990 c         1 MOL      0.682792
     72 O13        -3.6290    5.8680    1.9990 o         1 MOL     -0.556932
     73 C24        -2.0480    8.3580    1.5770 c3        1 MOL      0.583733
     74 C25        -1.2920    8.3220    2.8890 c3        1 MOL     -0.335654
     75 O14        -1.7230    9.4870    0.8190 oh        1 MOL     -0.631114
     76 H29        -0.0860    7.4510    0.1130 hn        1 MOL      0.226589
     77 H30        -2.8320    7.1070    0.0410 h1        1 MOL      0.200665
     78 H31        -3.0480    8.5690    1.9390 h1        1 MOL      0.021345
     79 H32        -0.8300    9.3520    0.4900 ho        1 MOL      0.377772
     80 H33        -1.5860    7.5440    3.5870 hc        1 MOL      0.073409
     81 H34        -0.2460    8.2610    2.5910 hc        1 MOL      0.073409
     82 H35        -1.3510    9.2980    3.3570 hc        1 MOL      0.073409
     83 N9         -1.5190    4.9640    2.1360 n         1 MOL     -0.333519
     84 C26        -1.8420    3.6400    2.6960 c3        1 MOL     -0.006439
     85 C27        -1.3990    2.6050    1.6980 c         1 MOL      0.587820
     86 O15        -0.3440    2.7850    1.0580 o         1 MOL     -0.520869
     87 C28        -1.1050    3.5590    4.1120 c3        1 MOL     -0.002008
     88 C29        -1.5490    4.6390    5.1330 c3        1 MOL     -0.006087
     89 C30        -1.2820    2.2040    4.8070 c3        1 MOL     -0.170621
     90 C31        -3.0410    4.6370    5.3720 c3        1 MOL      0.044106
     91 H36        -0.5460    5.2410    2.1500 hn        1 MOL      0.249693
     92 H37        -2.9110    3.5950    2.8910 h1        1 MOL      0.077954
     93 H38        -0.0420    3.6930    3.8850 hc        1 MOL      0.060590
     94 H39        -1.2280    5.6400    4.8320 hc        1 MOL     -0.002210
     95 H40        -1.1050    4.4050    6.1040 hc        1 MOL     -0.002210
     96 H41        -0.9200    2.1960    5.8390 hc        1 MOL      0.055904
     97 H42        -2.2570    1.7330    4.9150 hc        1 MOL      0.055904
     98 H43        -0.5600    1.4630    4.4580 hc        1 MOL      0.055904
     99 H44        -3.4330    3.6680    5.6790 hc        1 MOL     -0.014437
    100 H45        -3.2670    5.3330    6.1820 hc        1 MOL     -0.014437
    101 H46        -3.6210    4.9810    4.5140 hc        1 MOL     -0.014437
    102 N10        -2.1140    1.4900    1.5280 n         1 MOL     -0.705264
    103 C32        -1.7510    0.4470    0.5760 c3        1 MOL      0.391225
    104 C33        -2.9510   -0.2370   -0.1130 c         1 MOL      0.523917
    105 O16        -3.0950   -1.4690   -0.2870 o         1 MOL     -0.486254
    106 C34        -0.9580   -0.6320    1.3700 c3        1 MOL     -0.192430
    107 C35        -0.2080   -1.5970    0.5630 c         1 MOL      0.681207
    108 O17         0.1140   -1.3220   -0.6310 o         1 MOL     -0.719229
    109 O18         0.0370   -2.7590    1.0080 o         1 MOL     -0.719229
    110 H47        -3.0070    1.4240    2.0090 hn        1 MOL      0.318675
    111 H48        -1.1420    0.8550   -0.2290 h1        1 MOL      0.039969
    112 H49        -1.6220   -1.1120    2.0860 hc        1 MOL      0.051628
    113 H50        -0.2710   -0.0550    1.9930 hc        1 MOL      0.051628
    114 N11        -3.9380    0.4910   -0.6370 n         1 MOL     -0.527246
    115 C36        -5.1660   -0.0670   -1.0360 c3        1 MOL      0.419224
    116 C37        -5.9370   -0.7270    0.1500 c         1 MOL      0.057896
    117 O19        -5.9390   -0.1810    1.2710 o         1 MOL     -0.518208
    118 C38        -5.9130    1.0690   -1.7550 c3        1 MOL     -0.276675
    119 C39        -7.2520    0.6490   -2.3630 ca        1 MOL      0.176174
    120 C40        -7.3840    0.2930   -3.7220 ca        1 MOL     -0.224747
    121 C41        -8.4170    0.8010   -1.5980 ca        1 MOL     -0.224747
    122 C42        -8.6060   -0.0590   -4.2510 ca        1 MOL     -0.073177
    123 C43        -9.6980    0.3960   -2.0680 ca        1 MOL     -0.073177
    124 C44        -9.7500   -0.0280   -3.4140 ca        1 MOL     -0.148154
    125 H51        -3.8660    1.4800   -0.4550 hn        1 MOL      0.269210
    126 H52        -5.0990   -0.8280   -1.8060 h1        1 MOL      0.000603
    127 H53        -5.2940    1.5750   -2.4840 hc        1 MOL      0.087229
    128 H54        -6.0520    1.8200   -0.9740 hc        1 MOL      0.087229
    129 H55        -6.5470    0.1570   -4.3900 ha        1 MOL      0.144308
    130 H56        -8.3340    1.1370   -0.5750 ha        1 MOL      0.144308
    131 H57        -8.6490   -0.4040   -5.2770 ha        1 MOL      0.108363
    132 H58       -10.5700    0.4830   -1.4460 ha        1 MOL      0.108363
    133 H59       -10.7130   -0.3210   -3.8030 ha        1 MOL      0.093945
    134 N12        -6.5020   -1.9200   -0.0070 n         1 MOL      0.251470
    135 C45        -7.2890   -2.5890    1.0720 c3        1 MOL     -0.127468
    136 C46        -6.4210   -3.5610    1.9370 c         1 MOL      0.498025
    137 O20        -6.8740   -4.3400    2.7600 o         1 MOL     -0.556239
    138 C47        -8.4810   -3.2560    0.4100 c3        1 MOL      0.108227
    139 C48        -8.0120   -3.5030   -1.0700 c3        1 MOL     -0.044833
    140 C49        -6.7190   -2.6260   -1.2600 c3        1 MOL     -0.194031
    141 H60        -7.6820   -1.8730    1.7960 h1        1 MOL      0.067141
    142 H61        -8.8290   -4.1680    0.8780 hc        1 MOL     -0.012144
    143 H62        -9.2690   -2.5030    0.3820 hc        1 MOL     -0.012144
    144 H63        -7.8390   -4.5680   -1.2120 hc        1 MOL      0.024062
    145 H64        -8.7610   -3.0910   -1.7400 hc        1 MOL      0.024062
    146 H65        -5.8050   -3.1960   -1.4160 h1        1 MOL      0.083918
    147 H66        -6.7310   -1.9440   -2.1110 h1        1 MOL      0.083918
    148 N13        -5.1440   -3.4520    1.8130 n         1 MOL     -0.292351
    149 C50        -4.2260   -4.4080    2.3670 c3        1 MOL     -0.318948
    150 C51        -3.9050   -4.2890    3.8810 c         1 MOL      0.492631
    151 O21        -3.5370   -5.2320    4.5580 o         1 MOL     -0.517947
    152 C52        -2.9250   -4.4660    1.5150 c3        1 MOL      0.203592
    153 C53        -3.1780   -5.0950    0.1360 c3        1 MOL     -0.252529
    154 C54        -1.7450   -5.0780   -0.4730 c         1 MOL      0.685653
    155 O22        -1.4920   -4.3950   -1.4700 o         1 MOL     -0.739320
    156 O23        -0.8270   -5.7300    0.0660 o         1 MOL     -0.739320
    157 H67        -4.7800   -2.6560    1.3110 hn        1 MOL      0.260419
    158 H68        -4.7080   -5.3740    2.2100 h1        1 MOL      0.173039
    159 H69        -2.1880   -5.0440    2.0820 hc        1 MOL      0.026580
    160 H70        -2.4940   -3.4660    1.4930 hc        1 MOL      0.026580
    161 H71        -3.8800   -4.5090   -0.4520 hc        1 MOL      0.047360
    162 H72        -3.4580   -6.1380    0.2660 hc        1 MOL      0.047360
    163 N14        -3.8210   -3.0190    4.3810 n         1 MOL     -0.244025
    164 C55        -3.2820   -2.6550    5.7180 c3        1 MOL     -0.202392
    165 H73        -2.6280   -1.7880    5.6220 h1        1 MOL      0.091455
    166 H74        -4.1070   -2.4150    6.3890 h1        1 MOL      0.091455
    167 H75        -2.7160   -3.4930    6.1230 h1        1 MOL      0.091455
    168 H76        -4.1530   -2.2080    3.8930 hn        1 MOL      0.221769
    169 Ca1         1.0550   -4.1340   -0.8590 Ca        1 MOL      1.740400
    170 O24         1.1340   -1.8580   -3.0090 oh        1 MOL     -0.796701
    171 H77         2.0660   -1.6370   -2.9920 ho        1 MOL      0.394338
    172 H78         0.7810   -1.4580   -2.2170 ho        1 MOL      0.394338
    173 O25         1.9320   -6.6600   -1.0120 oh        1 MOL     -0.796701
    174 H79         2.5610   -6.8860   -0.3280 ho        1 MOL      0.394338
    175 H80         2.4710   -6.5690   -1.8050 ho        1 MOL      0.394338
    176 O26         1.0150   -5.1100   -3.3180 oh        1 MOL     -0.796701
    177 H81         0.7740   -4.5130   -4.0320 ho        1 MOL      0.394338
    178 H82         0.7280   -5.9710   -3.6160 ho        1 MOL      0.394338
    179 O27         2.4920   -5.0290    1.1850 oh        1 MOL     -0.796701
    180 H83         2.3160   -5.0600    2.1260 ho        1 MOL      0.394338
    181 H84         3.4140   -5.2570    1.1050 ho        1 MOL      0.394338
@<TRIPOS>BOND
     1    1    2 1   
     2    1    4 1   
     3    1    5 1   
     4    1    6 1   
     5    2    3 2   
     6    2    7 1   
     7    7    8 1   
     8    7   15 1   
     9    8    9 1   
    10    8   11 1   
    11    8   16 1   
    12    9   10 2   
    13    9   19 1   
    14   11   12 1   
    15   11   17 1   
    16   11   18 1   
    17   12   13 1   
    18   12   14 1   
    19   19   20 1   
    20   19   24 1   
    21   20   21 1   
    22   20   23 1   
    23   20   25 1   
    24   21   22 2   
    25   21   29 1   
    26   23   26 1   
    27   23   27 1   
    28   23   28 1   
    29   29   30 1   
    30   29   37 1   
    31   30   31 1   
    32   30   33 1   
    33   30   38 1   
    34   31   32 2   
    35   31   41 1   
    36   33   34 1   
    37   33   39 1   
    38   33   40 1   
    39   34   35 1   
    40   34   36 1   
    41   41   42 1   
    42   41   45 1   
    43   42   43 1   
    44   42   46 1   
    45   42   47 1   
    46   43   44 2   
    47   43   48 1   
    48   48   49 1   
    49   48   56 1   
    50   49   50 1   
    51   49   52 1   
    52   49   57 1   
    53   50   51 2   
    54   50   62 1   
    55   52   53 1   
    56   52   58 1   
    57   52   59 1   
    58   53   54 1   
    59   53   55 2   
    60   54   60 1   
    61   54   61 1   
    62   62   63 1   
    63   62   66 1   
    64   63   64 1   
    65   63   67 1   
    66   63   68 1   
    67   64   65 2   
    68   64   69 1   
    69   69   70 1   
    70   69   76 1   
    71   70   71 1   
    72   70   73 1   
    73   70   77 1   
    74   71   72 2   
    75   71   83 1   
    76   73   74 1   
    77   73   75 1   
    78   73   78 1   
    79   74   80 1   
    80   74   81 1   
    81   74   82 1   
    82   75   79 1   
    83   83   84 1   
    84   83   91 1   
    85   84   85 1   
    86   84   87 1   
    87   84   92 1   
    88   85   86 2   
    89   85  102 1   
    90   87   88 1   
    91   87   89 1   
    92   87   93 1   
    93   88   90 1   
    94   88   94 1   
    95   88   95 1   
    96   89   96 1   
    97   89   97 1   
    98   89   98 1   
    99   90   99 1   
   100   90  100 1   
   101   90  101 1   
   102  102  103 1   
   103  102  110 1   
   104  103  104 1   
   105  103  106 1   
   106  103  111 1   
   107  104  105 2   
   108  104  114 1   
   109  106  107 1   
   110  106  112 1   
   111  106  113 1   
   112  107  108 1   
   113  107  109 1   
   114  114  115 1   
   115  114  125 1   
   116  115  116 1   
   117  115  118 1   
   118  115  126 1   
   119  116  117 2   
   120  116  134 1   
   121  118  119 1   
   122  118  127 1   
   123  118  128 1   
   124  119  120 ar  
   125  119  121 ar  
   126  120  122 ar  
   127  120  129 1   
   128  121  123 ar  
   129  121  130 1   
   130  122  124 ar  
   131  122  131 1   
   132  123  124 ar  
   133  123  132 1   
   134  124  133 1   
   135  134  135 1   
   136  134  140 1   
   137  135  136 1   
   138  135  138 1   
   139  135  141 1   
   140  136  137 2   
   141  136  148 1   
   142  138  139 1   
   143  138  142 1   
   144  138  143 1   
   145  139  140 1   
   146  139  144 1   
   147  139  145 1   
   148  140  146 1   
   149  140  147 1   
   150  148  149 1   
   151  148  157 1   
   152  149  150 1   
   153  149  152 1   
   154  149  158 1   
   155  150  151 2   
   156  150  163 1   
   157  152  153 1   
   158  152  159 1   
   159  152  160 1   
   160  153  154 1   
   161  153  161 1   
   162  153  162 1   
   163  154  155 1   
   164  154  156 1   
   165  163  164 1   
   166  163  168 1   
   167  164  165 1   
   168  164  166 1   
   169  164  167 1   
   170  170  171 1   
   171  170  172 1   
   172  173  174 1   
   173  173  175 1   
   174  176  177 1   
   175  176  178 1   
   176  179  180 1   
   177  179  181 1   
@<TRIPOS>SUBSTRUCTURE
     1 MOL         1 TEMP              0 ****  ****    0 ROOT
