@<TRIPOS>MOLECULE
MOL
  178   175     1     0     0
SMALL
resp


@<TRIPOS>ATOM
      1 C1         -0.5220    6.2980    1.0190 c3        1 MOL     -0.409669
      2 C2         -1.9870    6.1450    0.5290 c         1 MOL      0.708510
      3 O1         -2.3350    6.5320   -0.5780 o         1 MOL     -0.587776
      4 H1          0.1490    6.3130    0.1600 hc        1 MOL      0.098755
      5 H2         -0.4200    7.2300    1.5750 hc        1 MOL      0.098755
      6 H3         -0.2640    5.4590    1.6660 hc        1 MOL      0.098755
      7 N1         -2.8630    5.5420    1.3350 n         1 MOL     -0.526290
      8 C3         -4.2690    5.2670    1.0730 c3        1 MOL      0.116030
      9 C4         -4.4630    4.0600    0.2040 c         1 MOL      0.671155
     10 O2         -3.8760    3.0190    0.5410 o         1 MOL     -0.619173
     11 C5         -5.0640    5.1190    2.3950 c3        1 MOL     -0.352417
     12 C6         -6.5240    5.4820    1.9630 c         1 MOL      0.771797
     13 O3         -6.8020    6.6830    1.8270 o         1 MOL     -0.742355
     14 O4         -7.4360    4.6350    1.8790 o         1 MOL     -0.742355
     15 H4         -2.5180    5.0930    2.1740 hn        1 MOL      0.282567
     16 H5         -4.7130    6.0560    0.4580 h1        1 MOL      0.046597
     17 H6         -4.7620    5.9290    3.0560 hc        1 MOL      0.070739
     18 H7         -4.9610    4.1330    2.8290 hc        1 MOL      0.070739
     19 N2         -5.1450    4.1520   -0.9130 n         1 MOL     -0.704422
     20 C7         -5.2590    3.0960   -1.8970 c3        1 MOL      0.644856
     21 C8         -3.9160    2.8890   -2.7210 c         1 MOL      0.362065
     22 O5         -3.1380    3.8210   -2.8180 o         1 MOL     -0.548405
     23 C9         -6.4530    3.3950   -2.7700 c3        1 MOL     -0.445472
     24 H8         -5.5760    5.0480   -1.0810 hn        1 MOL      0.341461
     25 H9         -5.4560    2.1540   -1.3860 h1        1 MOL      0.026652
     26 H10        -6.3360    4.3850   -3.1920 hc        1 MOL      0.095096
     27 H11        -6.4740    2.7300   -3.6450 hc        1 MOL      0.095096
     28 H12        -7.3080    3.2000   -2.1350 hc        1 MOL      0.095096
     29 N3         -3.6430    1.7330   -3.1420 n         1 MOL     -0.244955
     30 C10        -4.5480    0.5550   -3.3400 c3        1 MOL      0.038542
     31 C11        -5.1600   -0.2030   -2.1310 c         1 MOL      0.086187
     32 O6         -4.6180   -0.1090   -1.0440 o         1 MOL     -0.359209
     33 C12        -3.8350   -0.3690   -4.2710 c3        1 MOL     -0.147202
     34 C13        -2.4000   -0.7480   -3.7800 c         1 MOL      0.759916
     35 O7         -1.3810   -0.1530   -4.2180 o         1 MOL     -0.744143
     36 O8         -2.3210   -1.5820   -2.8360 o         1 MOL     -0.744143
     37 H13        -2.7010    1.5920   -3.4880 hn        1 MOL      0.194778
     38 H14        -5.3210    0.9340   -4.0050 h1        1 MOL      0.034886
     39 H15        -3.6230    0.0740   -5.2440 hc        1 MOL      0.046318
     40 H16        -4.4730   -1.2350   -4.4770 hc        1 MOL      0.046318
     41 N4         -6.3080   -0.9160   -2.3820 n         1 MOL     -0.253612
     42 C14        -7.0560   -1.6090   -1.3320 c3        1 MOL     -0.197637
     43 C15        -7.5360   -0.7170   -0.2140 c         1 MOL      0.686938
     44 O9         -7.8080    0.4680   -0.4100 o         1 MOL     -0.527945
     45 H17        -6.6680   -0.7960   -3.3160 hn        1 MOL      0.295932
     46 H18        -6.4310   -2.4020   -0.9210 h1        1 MOL      0.122337
     47 H19        -7.9660   -1.9580   -1.8210 h1        1 MOL      0.122337
     48 N5         -7.7300   -1.2510    1.0000 n         1 MOL     -0.626760
     49 C16        -7.5480   -2.6110    1.5130 c3        1 MOL      0.136536
     50 C17        -6.2110   -2.8500    2.2450 c         1 MOL      0.489236
     51 O10        -5.9430   -4.0070    2.6700 o         1 MOL     -0.538761
     52 C18        -8.7370   -3.0000    2.4010 c3        1 MOL     -0.329469
     53 C19       -10.1560   -3.0870    1.7390 c         1 MOL      0.751977
     54 N6        -11.2060   -3.1240    2.4810 n         1 MOL     -0.798119
     55 O11       -10.2700   -3.1710    0.4930 o         1 MOL     -0.569545
     56 H20        -8.3260   -0.7320    1.6320 hn        1 MOL      0.339811
     57 H21        -7.6330   -3.3230    0.6850 h1        1 MOL      0.068570
     58 H22        -8.6840   -2.3260    3.2590 hc        1 MOL      0.088005
     59 H23        -8.6630   -4.0450    2.7370 hc        1 MOL      0.088005
     60 H24       -11.0810   -3.3030    3.4670 hn        1 MOL      0.363366
     61 H25       -12.1420   -3.2130    2.1100 hn        1 MOL      0.363366
     62 N7         -5.3910   -1.8590    2.6210 n         1 MOL     -0.273164
     63 C20        -4.1210   -2.0120    3.3080 c3        1 MOL     -0.264731
     64 C21        -3.0690   -2.8970    2.6920 c         1 MOL      0.616821
     65 O12        -2.3060   -3.4940    3.4040 o         1 MOL     -0.587548
     66 H26        -5.6900   -0.9310    2.3430 hn        1 MOL      0.265565
     67 H27        -4.1920   -2.2970    4.3530 h1        1 MOL      0.131696
     68 H28        -3.7000   -1.0100    3.2490 h1        1 MOL      0.131696
     69 N8         -3.0940   -3.0460    1.3800 n         1 MOL     -0.171093
     70 C22        -2.1440   -3.8080    0.5620 c3        1 MOL     -0.120381
     71 C23        -0.7930   -3.0860    0.2980 c         1 MOL      0.486985
     72 O13        -0.8100   -1.8690   -0.0350 o         1 MOL     -0.679711
     73 C24        -2.7770   -4.2240   -0.7600 c3        1 MOL      0.169278
     74 C25        -3.5390   -5.4790   -0.5740 c3        1 MOL     -0.234639
     75 O14        -3.6660   -3.2030   -1.1870 oh        1 MOL     -0.469985
     76 H29        -3.6940   -2.5100    0.7600 hn        1 MOL      0.163175
     77 H30        -1.9370   -4.7590    1.0540 h1        1 MOL      0.101015
     78 H31        -2.0420   -4.3430   -1.5530 h1        1 MOL      0.072900
     79 H32        -3.0170   -2.5580   -1.4560 ho        1 MOL      0.422990
     80 H33        -4.2750   -5.3500    0.2170 hc        1 MOL      0.058189
     81 H34        -4.0330   -5.7320   -1.5120 hc        1 MOL      0.058189
     82 H35        -2.9200   -6.2860   -0.2020 hc        1 MOL      0.058189
     83 N9          0.2420   -3.8030    0.6240 n         1 MOL     -0.220583
     84 C26         1.5550   -3.2810    0.9680 c3        1 MOL     -0.088046
     85 C27         2.6070   -3.6440   -0.1250 c         1 MOL      0.350784
     86 O15         2.6660   -4.8200   -0.5170 o         1 MOL     -0.483385
     87 C28         2.0750   -3.8220    2.3870 c3        1 MOL      0.118304
     88 C29         3.3610   -3.0490    2.8590 c3        1 MOL      0.042198
     89 C30         0.9800   -3.5660    3.5250 c3        1 MOL     -0.231602
     90 C31         4.0600   -3.5560    4.1820 c3        1 MOL     -0.255385
     91 H36         0.1640   -4.7490    0.9560 hn        1 MOL      0.229207
     92 H37         1.5320   -2.1950    1.1190 h1        1 MOL      0.227522
     93 H38         2.2680   -4.8970    2.3440 hc        1 MOL      0.011247
     94 H39         3.0810   -1.9990    2.9660 hc        1 MOL      0.018189
     95 H40         4.1680   -3.1020    2.1390 hc        1 MOL      0.018189
     96 H41         1.2370   -4.0890    4.4510 hc        1 MOL      0.061813
     97 H42         0.8430   -2.4990    3.7050 hc        1 MOL      0.061813
     98 H43         0.0240   -3.9820    3.2080 hc        1 MOL      0.061813
     99 H44         4.1260   -4.6470    4.2080 hc        1 MOL      0.052072
    100 H45         5.0410   -3.0800    4.2440 hc        1 MOL      0.052072
    101 H46         3.4630   -3.4350    5.0900 hc        1 MOL      0.052072
    102 N10         3.4930   -2.7120   -0.5940 n         1 MOL     -0.312393
    103 C32         4.3380   -2.9190   -1.8530 c3        1 MOL      0.106995
    104 C33         5.7090   -2.2140   -1.7190 c         1 MOL      0.411397
    105 O16         6.5770   -2.6400   -2.4730 o         1 MOL     -0.534171
    106 C34         3.6060   -2.4700   -3.1440 c3        1 MOL      0.071659
    107 C35         2.1640   -2.9380   -3.3140 c         1 MOL      0.663978
    108 O17         2.0330   -3.9940   -3.9370 o         1 MOL     -0.685237
    109 O18         1.1970   -2.3820   -2.7930 o         1 MOL     -0.685237
    110 H47         3.5010   -1.8200   -0.1220 hn        1 MOL      0.007552
    111 H48         4.5420   -3.9950   -1.9050 h1        1 MOL      0.076288
    112 H49         4.1810   -2.7880   -4.0070 hc        1 MOL     -0.049139
    113 H50         3.5380   -1.3780   -3.1500 hc        1 MOL     -0.049139
    114 N11         5.8880   -1.1890   -0.8770 n         1 MOL     -0.445704
    115 C36         7.1200   -0.4050   -0.8660 c3        1 MOL      0.338573
    116 C37         6.8810    1.0520   -0.3340 c         1 MOL      0.281362
    117 O19         7.3820    1.3840    0.7190 o         1 MOL     -0.497570
    118 C38         8.1420   -1.1880   -0.0010 c3        1 MOL     -0.514533
    119 C39         9.6040   -0.8130   -0.1040 ca        1 MOL      0.288952
    120 C40        10.3020   -0.7790   -1.3460 ca        1 MOL     -0.210103
    121 C41        10.3790   -0.8090    1.0750 ca        1 MOL     -0.210103
    122 C42        11.7030   -0.7590   -1.4860 ca        1 MOL     -0.119903
    123 C43        11.7910   -0.8480    0.9400 ca        1 MOL     -0.119903
    124 C44        12.4690   -0.7950   -0.3060 ca        1 MOL     -0.134719
    125 H51         5.1400   -0.8370   -0.2970 hn        1 MOL      0.362859
    126 H52         7.5510   -0.3230   -1.8570 h1        1 MOL      0.020445
    127 H53         8.1370   -2.2130   -0.3810 hc        1 MOL      0.161402
    128 H54         7.8730   -1.1030    1.0540 hc        1 MOL      0.161402
    129 H55         9.6670   -1.0050   -2.1890 ha        1 MOL      0.126770
    130 H56         9.9410   -0.9420    2.0500 ha        1 MOL      0.126770
    131 H57        12.1540   -0.8160   -2.4640 ha        1 MOL      0.106640
    132 H58        12.3500   -0.7570    1.8580 ha        1 MOL      0.106640
    133 H59        13.5580   -0.8380   -0.3320 ha        1 MOL      0.097888
    134 N12         6.0810    1.9120   -1.0110 n         1 MOL     -0.149832
    135 C45         5.8150    3.2980   -0.6070 c3        1 MOL      0.009918
    136 C46         5.2420    3.5040    0.8510 c         1 MOL      0.258591
    137 O20         5.0840    4.6560    1.3250 o         1 MOL     -0.508401
    138 C47         4.8080    3.8130   -1.6700 c3        1 MOL     -0.062583
    139 C48         5.1230    2.8870   -2.8330 c3        1 MOL     -0.042032
    140 C49         5.3560    1.4940   -2.2210 c3        1 MOL     -0.063806
    141 H60         6.6650    3.9540   -0.7650 h1        1 MOL      0.107920
    142 H61         3.7790    3.7630   -1.3280 hc        1 MOL      0.055644
    143 H62         5.0330    4.8790   -1.7850 hc        1 MOL      0.055644
    144 H63         4.3140    2.7980   -3.5740 hc        1 MOL      0.010117
    145 H64         6.0160    3.3080   -3.2900 hc        1 MOL      0.010117
    146 H65         4.4060    1.0130   -1.9960 h1        1 MOL      0.089813
    147 H66         5.9300    0.9090   -2.9310 h1        1 MOL      0.089813
    148 N13         4.8090    2.4330    1.5390 n         1 MOL      0.164202
    149 C50         4.2770    2.4130    2.9290 c3        1 MOL     -0.444400
    150 C51         5.4570    2.5700    3.8540 c         1 MOL      0.652302
    151 O21         5.6620    3.5820    4.5380 o         1 MOL     -0.541936
    152 C52         3.4650    1.1400    3.0200 c3        1 MOL      0.108323
    153 C53         2.2380    1.0270    2.1480 c3        1 MOL     -0.100277
    154 C54         2.4620    0.4880    0.7120 c         1 MOL      0.396435
    155 O22         1.5560    0.6350   -0.0890 o         1 MOL     -0.587538
    156 O23         3.5310   -0.2140    0.5970 o         1 MOL     -0.587538
    157 H67         4.9880    1.5360    1.1070 hn        1 MOL      0.161218
    158 H68         3.5340    3.2020    3.0800 h1        1 MOL      0.170514
    159 H69         3.0430    1.0590    4.0230 hc        1 MOL     -0.016383
    160 H70         4.0710    0.2450    2.9340 hc        1 MOL     -0.016383
    161 H71         1.8310    2.0270    2.0240 hc        1 MOL      0.052214
    162 H72         1.5330    0.3810    2.6630 hc        1 MOL      0.052214
    163 N14         6.3050    1.5470    3.8930 n         1 MOL     -0.381787
    164 C55         7.4810    1.5330    4.6910 c3        1 MOL     -0.335937
    165 H73         8.3030    1.9840    4.1340 h1        1 MOL      0.128473
    166 H74         7.3070    2.1020    5.6050 h1        1 MOL      0.128473
    167 H75         7.7360    0.5050    4.9450 h1        1 MOL      0.128473
    168 H76         6.1750    0.7260    3.3220 hn        1 MOL      0.341630
    169 Ca1         0.0190   -0.2020   -1.8520 Ca        1 MOL      1.709445
    170 O24        -2.0790    0.9090   -0.5750 oh        1 MOL     -0.843139
    171 H77        -2.1430    1.7830   -0.1890 ho        1 MOL      0.410844
    172 H78        -2.9580    0.5390   -0.4630 ho        1 MOL      0.410844
    173 O25        -0.3940    2.3820   -2.4690 oh        1 MOL     -0.843139
    174 H79         0.4100    2.7600   -2.8310 ho        1 MOL      0.410844
    175 H80        -1.0750    3.0090   -2.7010 ho        1 MOL      0.410844
    176 O26         2.1190    0.7140   -3.4870 oh        1 MOL     -0.843139
    177 H81         1.9590    0.2730   -4.3140 ho        1 MOL      0.410844
    178 H82         2.5610    1.5310   -3.7200 ho        1 MOL      0.410844
@<TRIPOS>BOND
     1    1    2 1   
     2    1    4 1   
     3    1    5 1   
     4    1    6 1   
     5    2    3 2   
     6    2    7 1   
     7    7    8 1   
     8    7   15 1   
     9    8    9 1   
    10    8   11 1   
    11    8   16 1   
    12    9   10 2   
    13    9   19 1   
    14   11   12 1   
    15   11   17 1   
    16   11   18 1   
    17   12   13 1   
    18   12   14 1   
    19   19   20 1   
    20   19   24 1   
    21   20   21 1   
    22   20   23 1   
    23   20   25 1   
    24   21   22 2   
    25   21   29 1   
    26   23   26 1   
    27   23   27 1   
    28   23   28 1   
    29   29   30 1   
    30   29   37 1   
    31   30   31 1   
    32   30   33 1   
    33   30   38 1   
    34   31   32 2   
    35   31   41 1   
    36   33   34 1   
    37   33   39 1   
    38   33   40 1   
    39   34   35 1   
    40   34   36 1   
    41   41   42 1   
    42   41   45 1   
    43   42   43 1   
    44   42   46 1   
    45   42   47 1   
    46   43   44 2   
    47   43   48 1   
    48   48   49 1   
    49   48   56 1   
    50   49   50 1   
    51   49   52 1   
    52   49   57 1   
    53   50   51 2   
    54   50   62 1   
    55   52   53 1   
    56   52   58 1   
    57   52   59 1   
    58   53   54 1   
    59   53   55 2   
    60   54   60 1   
    61   54   61 1   
    62   62   63 1   
    63   62   66 1   
    64   63   64 1   
    65   63   67 1   
    66   63   68 1   
    67   64   65 2   
    68   64   69 1   
    69   69   70 1   
    70   69   76 1   
    71   70   71 1   
    72   70   73 1   
    73   70   77 1   
    74   71   72 2   
    75   71   83 1   
    76   73   74 1   
    77   73   75 1   
    78   73   78 1   
    79   74   80 1   
    80   74   81 1   
    81   74   82 1   
    82   75   79 1   
    83   83   84 1   
    84   83   91 1   
    85   84   85 1   
    86   84   87 1   
    87   84   92 1   
    88   85   86 2   
    89   85  102 1   
    90   87   88 1   
    91   87   89 1   
    92   87   93 1   
    93   88   90 1   
    94   88   94 1   
    95   88   95 1   
    96   89   96 1   
    97   89   97 1   
    98   89   98 1   
    99   90   99 1   
   100   90  100 1   
   101   90  101 1   
   102  102  103 1   
   103  102  110 1   
   104  103  104 1   
   105  103  106 1   
   106  103  111 1   
   107  104  105 2   
   108  104  114 1   
   109  106  107 1   
   110  106  112 1   
   111  106  113 1   
   112  107  108 1   
   113  107  109 1   
   114  114  115 1   
   115  114  125 1   
   116  115  116 1   
   117  115  118 1   
   118  115  126 1   
   119  116  117 2   
   120  116  134 1   
   121  118  119 1   
   122  118  127 1   
   123  118  128 1   
   124  119  120 ar  
   125  119  121 ar  
   126  120  122 ar  
   127  120  129 1   
   128  121  123 ar  
   129  121  130 1   
   130  122  124 ar  
   131  122  131 1   
   132  123  124 ar  
   133  123  132 1   
   134  124  133 1   
   135  134  135 1   
   136  134  140 1   
   137  135  136 1   
   138  135  138 1   
   139  135  141 1   
   140  136  137 2   
   141  136  148 1   
   142  138  139 1   
   143  138  142 1   
   144  138  143 1   
   145  139  140 1   
   146  139  144 1   
   147  139  145 1   
   148  140  146 1   
   149  140  147 1   
   150  148  149 1   
   151  148  157 1   
   152  149  150 1   
   153  149  152 1   
   154  149  158 1   
   155  150  151 2   
   156  150  163 1   
   157  152  153 1   
   158  152  159 1   
   159  152  160 1   
   160  153  154 1   
   161  153  161 1   
   162  153  162 1   
   163  154  155 1   
   164  154  156 1   
   165  163  164 1   
   166  163  168 1   
   167  164  165 1   
   168  164  166 1   
   169  164  167 1   
   170  170  171 1   
   171  170  172 1   
   172  173  174 1   
   173  173  175 1   
   174  176  177 1   
   175  176  178 1   
@<TRIPOS>SUBSTRUCTURE
     1 MOL         1 TEMP              0 ****  ****    0 ROOT
