@<TRIPOS>MOLECULE
MOL
  178   175     1     0     0
SMALL
resp


@<TRIPOS>ATOM
      1 C1          1.6020    7.5410   -1.4100 c3        1 MOL     -0.352112
      2 C2          2.7950    7.0260   -0.6420 c         1 MOL      0.829080
      3 O1          2.9220    7.2890    0.4880 o         1 MOL     -0.615033
      4 H1          1.4990    8.6130   -1.2430 hc        1 MOL      0.079360
      5 H2          1.7450    7.3520   -2.4740 hc        1 MOL      0.079360
      6 H3          0.7010    7.0320   -1.0680 hc        1 MOL      0.079360
      7 N1          3.7070    6.3320   -1.3460 n         1 MOL     -0.808884
      8 C3          5.0590    6.0570   -0.9020 c3        1 MOL      0.401056
      9 C4          5.0910    4.6160   -0.2740 c         1 MOL      0.651967
     10 O2          5.4860    3.6050   -0.8440 o         1 MOL     -0.587447
     11 C5          6.1100    6.3910   -1.9820 c3        1 MOL     -0.291038
     12 C6          7.5800    6.1580   -1.5130 c         1 MOL      0.740548
     13 O3          7.7800    5.6740   -0.4050 o         1 MOL     -0.730768
     14 O4          8.4780    6.4720   -2.3040 o         1 MOL     -0.730768
     15 H4          3.5370    6.1180   -2.3190 hn        1 MOL      0.346990
     16 H5          5.3480    6.6600   -0.0420 h1        1 MOL     -0.011936
     17 H6          6.0230    7.4240   -2.3380 hc        1 MOL      0.022625
     18 H7          5.9520    5.7390   -2.8390 hc        1 MOL      0.022625
     19 N2          4.5570    4.5540    0.9300 n         1 MOL     -0.751090
     20 C7          4.4150    3.4730    1.9150 c3        1 MOL      0.641971
     21 C8          3.0350    2.9000    1.9900 c         1 MOL      0.304360
     22 O5          2.0870    3.3540    1.3550 o         1 MOL     -0.512850
     23 C9          4.7840    4.1750    3.2500 c3        1 MOL     -0.561154
     24 H8          4.2250    5.4320    1.3220 hn        1 MOL      0.317977
     25 H9          5.1670    2.7530    1.6010 h1        1 MOL     -0.007921
     26 H10         4.8680    3.3560    3.9640 hc        1 MOL      0.141308
     27 H11         5.7410    4.6900    3.2090 hc        1 MOL      0.141308
     28 H12         3.9780    4.8560    3.5080 hc        1 MOL      0.141308
     29 N3          2.7520    1.7320    2.6220 n         1 MOL     -0.241993
     30 C10         3.8340    0.8190    3.2210 c3        1 MOL     -0.297417
     31 C11         4.3220   -0.2810    2.3070 c         1 MOL      0.711409
     32 O6          3.6090   -0.6080    1.3320 o         1 MOL     -0.639500
     33 C12         3.2620    0.1940    4.4860 c3        1 MOL      0.039964
     34 C13         1.8960   -0.3640    4.4320 c         1 MOL      0.646223
     35 O7          1.2960   -0.6120    3.3650 o         1 MOL     -0.674073
     36 O8          1.4330   -0.8610    5.5100 o         1 MOL     -0.674073
     37 H13         1.7900    1.4520    2.7320 hn        1 MOL      0.231539
     38 H14         4.7010    1.3810    3.5690 h1        1 MOL      0.070038
     39 H15         3.2790    1.0200    5.2030 hc        1 MOL     -0.003252
     40 H16         3.8840   -0.5430    4.9970 hc        1 MOL     -0.003252
     41 N4          5.5500   -0.7680    2.4740 n         1 MOL     -0.429078
     42 C14         6.0460   -1.7730    1.4810 c3        1 MOL     -0.347448
     43 C15         6.4000   -1.1760    0.1430 c         1 MOL      0.697304
     44 O9          6.8700   -0.0090    0.1240 o         1 MOL     -0.503233
     45 H17         6.1340   -0.4980    3.2610 hn        1 MOL      0.323692
     46 H18         5.2650   -2.5100    1.3220 h1        1 MOL      0.174855
     47 H19         7.0340   -2.1120    1.7880 h1        1 MOL      0.174855
     48 N5          6.2890   -1.8900   -0.9430 n         1 MOL     -0.683882
     49 C16         6.0350   -3.2990   -1.1060 c3        1 MOL      0.477239
     50 C17         4.8560   -3.5100   -2.1460 c         1 MOL      0.474920
     51 O10         4.3920   -2.5300   -2.7180 o         1 MOL     -0.519683
     52 C18         7.3170   -3.9440   -1.6140 c3        1 MOL     -0.471613
     53 C19         8.5570   -3.8190   -0.7370 c         1 MOL      0.770936
     54 N6          9.4830   -3.0370   -1.1170 n         1 MOL     -0.790696
     55 O11         8.6480   -4.2390    0.3900 o         1 MOL     -0.605534
     56 H20         6.2500   -1.2600   -1.7310 hn        1 MOL      0.343434
     57 H21         5.6900   -3.8670   -0.2380 h1        1 MOL     -0.058028
     58 H22         7.5330   -3.5220   -2.5910 hc        1 MOL      0.086173
     59 H23         7.1520   -5.0320   -1.6580 hc        1 MOL      0.086173
     60 H24         9.6310   -2.8790   -2.1060 hn        1 MOL      0.377182
     61 H25        10.1300   -2.7570   -0.4000 hn        1 MOL      0.377182
     62 N7          4.4620   -4.7480   -2.3080 n         1 MOL     -0.342900
     63 C20         3.3780   -5.1020   -3.2440 c3        1 MOL     -0.412655
     64 C21         1.9630   -5.1340   -2.7190 c         1 MOL      0.743501
     65 O12         1.1150   -5.2430   -3.6160 o         1 MOL     -0.612049
     66 H26         4.9900   -5.4210   -1.7780 hn        1 MOL      0.299475
     67 H27         3.5200   -6.1130   -3.6320 h1        1 MOL      0.192705
     68 H28         3.4410   -4.3030   -3.9720 h1        1 MOL      0.192705
     69 N8          1.6390   -5.2380   -1.4510 n         1 MOL     -0.384194
     70 C22         0.2810   -5.4230   -0.8840 c3        1 MOL     -0.078389
     71 C23        -0.6700   -4.2260   -1.0950 c         1 MOL      0.594064
     72 O13        -0.3460   -3.1110   -0.6360 o         1 MOL     -0.594184
     73 C24         0.3480   -5.6390    0.6400 c3        1 MOL      0.254312
     74 C25        -1.0320   -5.7950    1.4530 c3        1 MOL     -0.296435
     75 O14         1.2350   -6.6810    0.8710 oh        1 MOL     -0.628922
     76 H29         2.4370   -5.1600   -0.8400 hn        1 MOL      0.216786
     77 H30        -0.2180   -6.2980   -1.2930 h1        1 MOL      0.070177
     78 H31         0.8470   -4.7620    1.0390 h1        1 MOL      0.022285
     79 H32         0.8230   -7.2520    1.5170 ho        1 MOL      0.395045
     80 H33        -0.7950   -5.9400    2.5020 hc        1 MOL      0.097040
     81 H34        -1.5560   -4.8480    1.3700 hc        1 MOL      0.097040
     82 H35        -1.5790   -6.6440    1.0370 hc        1 MOL      0.097040
     83 N9         -1.8190   -4.4130   -1.7190 n         1 MOL     -0.422136
     84 C26        -2.8980   -3.4260   -1.6430 c3        1 MOL     -0.042152
     85 C27        -3.5220   -3.4970   -0.2390 c         1 MOL      0.217546
     86 O15        -4.2150   -4.4290    0.0720 o         1 MOL     -0.507314
     87 C28        -3.9490   -3.7810   -2.7710 c3        1 MOL      0.218382
     88 C29        -5.2730   -3.0470   -2.7160 c3        1 MOL      0.001561
     89 C30        -3.4090   -3.8400   -4.2110 c3        1 MOL     -0.534902
     90 C31        -5.0760   -1.5290   -2.7600 c3        1 MOL     -0.142273
     91 H36        -1.8930   -5.2910   -2.2000 hn        1 MOL      0.302606
     92 H37        -2.4240   -2.4860   -1.9110 h1        1 MOL      0.190343
     93 H38        -4.1710   -4.8310   -2.5580 hc        1 MOL     -0.011690
     94 H39        -5.7150   -3.3020   -1.7580 hc        1 MOL      0.017987
     95 H40        -5.9840   -3.4030   -3.4620 hc        1 MOL      0.017987
     96 H41        -2.9840   -4.8350   -4.3060 hc        1 MOL      0.132328
     97 H42        -4.1320   -3.6260   -4.9880 hc        1 MOL      0.132328
     98 H43        -2.5580   -3.1560   -4.3210 hc        1 MOL      0.132328
     99 H44        -4.1460   -1.2320   -2.2840 hc        1 MOL      0.015377
    100 H45        -5.1130   -1.2930   -3.8290 hc        1 MOL      0.015377
    101 H46        -6.0040   -1.1110   -2.3620 hc        1 MOL      0.015377
    102 N10        -3.3400   -2.4220    0.5390 n         1 MOL      0.243380
    103 C32        -3.9730   -2.2680    1.8600 c3        1 MOL     -0.003525
    104 C33        -5.1240   -1.2010    1.8650 c         1 MOL      0.593989
    105 O16        -6.0490   -1.2780    2.6750 o         1 MOL     -0.591305
    106 C34        -2.9510   -1.9160    2.9170 c3        1 MOL     -0.186659
    107 C35        -1.8020   -2.8790    3.1160 c         1 MOL      0.760111
    108 O17        -0.8410   -2.6760    2.4730 o         1 MOL     -0.714976
    109 O18        -1.9380   -3.7930    3.9610 o         1 MOL     -0.714976
    110 H47        -2.8320   -1.6360    0.1600 hn        1 MOL     -0.250623
    111 H48        -4.4950   -3.1950    2.1200 h1        1 MOL      0.072404
    112 H49        -3.4880   -1.8020    3.8610 hc        1 MOL      0.042745
    113 H50        -2.6670   -0.8830    2.7420 hc        1 MOL      0.042745
    114 N11        -5.1610   -0.3020    0.9290 n         1 MOL     -0.925559
    115 C36        -6.1900    0.7250    0.8180 c3        1 MOL      0.529283
    116 C37        -5.6060    2.1070    0.4830 c         1 MOL      0.068809
    117 O19        -6.1390    2.7090   -0.4480 o         1 MOL     -0.476434
    118 C38        -7.3050    0.2700   -0.1510 c3        1 MOL     -0.087645
    119 C39        -8.6990    0.6280    0.3420 ca        1 MOL     -0.109458
    120 C40        -9.3490   -0.1820    1.3120 ca        1 MOL     -0.083060
    121 C41        -9.1610    1.9490    0.1950 ca        1 MOL     -0.083060
    122 C42       -10.5230    0.2190    1.9810 ca        1 MOL     -0.149274
    123 C43       -10.2640    2.4300    0.9130 ca        1 MOL     -0.149274
    124 C44       -10.9470    1.5790    1.7780 ca        1 MOL     -0.095623
    125 H51        -4.4200   -0.2380    0.2490 hn        1 MOL      0.611010
    126 H52        -6.7170    0.8600    1.7540 h1        1 MOL      0.049392
    127 H53        -7.2800   -0.8220   -0.2460 hc        1 MOL      0.081851
    128 H54        -7.1650    0.5720   -1.1920 hc        1 MOL      0.081851
    129 H55        -8.8930   -1.1280    1.5560 ha        1 MOL      0.114096
    130 H56        -8.6600    2.5770   -0.5250 ha        1 MOL      0.114096
    131 H57       -11.1380   -0.3890    2.6230 ha        1 MOL      0.106816
    132 H58       -10.6050    3.4430    0.7880 ha        1 MOL      0.106816
    133 H59       -11.8570    1.9510    2.2400 ha        1 MOL      0.080641
    134 N12        -4.5620    2.6920    1.0860 n         1 MOL      0.078565
    135 C45        -3.9130    3.9410    0.6740 c3        1 MOL      0.090222
    136 C46        -3.4180    4.0040   -0.7920 c         1 MOL      0.190097
    137 O20        -3.5020    5.1080   -1.3800 o         1 MOL     -0.490624
    138 C47        -2.7750    4.2600    1.6260 c3        1 MOL     -0.013872
    139 C48        -3.1510    3.4460    2.8870 c3        1 MOL     -0.157567
    140 C49        -4.1080    2.3120    2.4280 c3        1 MOL      0.000905
    141 H60        -4.6310    4.7550    0.7770 h1        1 MOL      0.044780
    142 H61        -1.8000    3.9610    1.2120 hc        1 MOL      0.047384
    143 H62        -2.7650    5.3260    1.8490 hc        1 MOL      0.047384
    144 H63        -2.2690    2.9980    3.3420 hc        1 MOL      0.050570
    145 H64        -3.7540    4.0330    3.5760 hc        1 MOL      0.050570
    146 H65        -3.5480    1.3780    2.4310 h1        1 MOL      0.050695
    147 H66        -4.9030    2.2740    3.1710 h1        1 MOL      0.050695
    148 N13        -3.1850    2.8680   -1.4470 n         1 MOL      0.088679
    149 C50        -2.8200    2.7440   -2.8140 c3        1 MOL     -0.314722
    150 C51        -3.9630    3.1200   -3.7100 c         1 MOL      0.549843
    151 O21        -3.8150    3.7440   -4.7620 o         1 MOL     -0.564888
    152 C52        -2.2430    1.3520   -3.1090 c3        1 MOL      0.100572
    153 C53        -1.2590    0.8400   -2.0880 c3        1 MOL     -0.104507
    154 C54        -1.8040    0.1980   -0.8250 c         1 MOL      0.870954
    155 O22        -0.9780   -0.2300    0.0450 o         1 MOL     -0.744978
    156 O23        -3.0270    0.1430   -0.5960 o         1 MOL     -0.744978
    157 H67        -3.1740    1.9880   -0.9410 hn        1 MOL      0.071166
    158 H68        -1.9530    3.3880   -3.0100 h1        1 MOL      0.120822
    159 H69        -1.7560    1.4750   -4.0730 hc        1 MOL     -0.003830
    160 H70        -3.0950    0.6660   -3.1000 hc        1 MOL     -0.003830
    161 H71        -0.5670    1.5730   -1.6570 hc        1 MOL      0.025481
    162 H72        -0.6370    0.1360   -2.6610 hc        1 MOL      0.025481
    163 N14        -5.1780    2.6760   -3.3580 n         1 MOL     -0.153048
    164 C55        -6.4590    2.9920   -4.0590 c3        1 MOL     -0.265420
    165 H73        -6.6300    4.0680   -4.0360 h1        1 MOL      0.104674
    166 H74        -6.3990    2.6560   -5.0950 h1        1 MOL      0.104674
    167 H75        -7.2830    2.4820   -3.5590 h1        1 MOL      0.104674
    168 H76        -5.2050    2.0910   -2.5330 hn        1 MOL      0.160421
    169 Ca1         0.8950   -1.5790    1.1270 Ca        1 MOL      1.765158
    170 O24         2.5460   -3.5360    2.0370 oh        1 MOL     -0.889034
    171 H77         2.9980   -4.2550    1.6040 ho        1 MOL      0.430708
    172 H78         2.3790   -3.8660    2.9240 ho        1 MOL      0.430708
    173 O25         1.5650    0.8180   -0.0400 oh        1 MOL     -0.889034
    174 H79         2.4220    1.2290    0.0890 ho        1 MOL      0.430708
    175 H80         1.0070    1.5190   -0.3640 ho        1 MOL      0.430708
    176 O26         2.1690   -1.3140   -1.5550 oh        1 MOL     -0.889034
    177 H81         2.8180   -1.6330   -2.1920 ho        1 MOL      0.430708
    178 H82         2.4460   -0.4280   -1.3460 ho        1 MOL      0.430708
@<TRIPOS>BOND
     1    1    2 1   
     2    1    4 1   
     3    1    5 1   
     4    1    6 1   
     5    2    3 2   
     6    2    7 1   
     7    7    8 1   
     8    7   15 1   
     9    8    9 1   
    10    8   11 1   
    11    8   16 1   
    12    9   10 2   
    13    9   19 1   
    14   11   12 1   
    15   11   17 1   
    16   11   18 1   
    17   12   13 1   
    18   12   14 1   
    19   19   20 1   
    20   19   24 1   
    21   20   21 1   
    22   20   23 1   
    23   20   25 1   
    24   21   22 2   
    25   21   29 1   
    26   23   26 1   
    27   23   27 1   
    28   23   28 1   
    29   29   30 1   
    30   29   37 1   
    31   30   31 1   
    32   30   33 1   
    33   30   38 1   
    34   31   32 2   
    35   31   41 1   
    36   33   34 1   
    37   33   39 1   
    38   33   40 1   
    39   34   35 1   
    40   34   36 1   
    41   41   42 1   
    42   41   45 1   
    43   42   43 1   
    44   42   46 1   
    45   42   47 1   
    46   43   44 2   
    47   43   48 1   
    48   48   49 1   
    49   48   56 1   
    50   49   50 1   
    51   49   52 1   
    52   49   57 1   
    53   50   51 2   
    54   50   62 1   
    55   52   53 1   
    56   52   58 1   
    57   52   59 1   
    58   53   54 1   
    59   53   55 2   
    60   54   60 1   
    61   54   61 1   
    62   62   63 1   
    63   62   66 1   
    64   63   64 1   
    65   63   67 1   
    66   63   68 1   
    67   64   65 2   
    68   64   69 1   
    69   69   70 1   
    70   69   76 1   
    71   70   71 1   
    72   70   73 1   
    73   70   77 1   
    74   71   72 2   
    75   71   83 1   
    76   73   74 1   
    77   73   75 1   
    78   73   78 1   
    79   74   80 1   
    80   74   81 1   
    81   74   82 1   
    82   75   79 1   
    83   83   84 1   
    84   83   91 1   
    85   84   85 1   
    86   84   87 1   
    87   84   92 1   
    88   85   86 2   
    89   85  102 1   
    90   87   88 1   
    91   87   89 1   
    92   87   93 1   
    93   88   90 1   
    94   88   94 1   
    95   88   95 1   
    96   89   96 1   
    97   89   97 1   
    98   89   98 1   
    99   90   99 1   
   100   90  100 1   
   101   90  101 1   
   102  102  103 1   
   103  102  110 1   
   104  103  104 1   
   105  103  106 1   
   106  103  111 1   
   107  104  105 2   
   108  104  114 1   
   109  106  107 1   
   110  106  112 1   
   111  106  113 1   
   112  107  108 1   
   113  107  109 1   
   114  114  115 1   
   115  114  125 1   
   116  115  116 1   
   117  115  118 1   
   118  115  126 1   
   119  116  117 2   
   120  116  134 1   
   121  118  119 1   
   122  118  127 1   
   123  118  128 1   
   124  119  120 ar  
   125  119  121 ar  
   126  120  122 ar  
   127  120  129 1   
   128  121  123 ar  
   129  121  130 1   
   130  122  124 ar  
   131  122  131 1   
   132  123  124 ar  
   133  123  132 1   
   134  124  133 1   
   135  134  135 1   
   136  134  140 1   
   137  135  136 1   
   138  135  138 1   
   139  135  141 1   
   140  136  137 2   
   141  136  148 1   
   142  138  139 1   
   143  138  142 1   
   144  138  143 1   
   145  139  140 1   
   146  139  144 1   
   147  139  145 1   
   148  140  146 1   
   149  140  147 1   
   150  148  149 1   
   151  148  157 1   
   152  149  150 1   
   153  149  152 1   
   154  149  158 1   
   155  150  151 2   
   156  150  163 1   
   157  152  153 1   
   158  152  159 1   
   159  152  160 1   
   160  153  154 1   
   161  153  161 1   
   162  153  162 1   
   163  154  155 1   
   164  154  156 1   
   165  163  164 1   
   166  163  168 1   
   167  164  165 1   
   168  164  166 1   
   169  164  167 1   
   170  170  171 1   
   171  170  172 1   
   172  173  174 1   
   173  173  175 1   
   174  176  177 1   
   175  176  178 1   
@<TRIPOS>SUBSTRUCTURE
     1 MOL         1 TEMP              0 ****  ****    0 ROOT
