@<TRIPOS>MOLECULE
MOL
  185   180     1     0     0
SMALL
resp


@<TRIPOS>ATOM
      1 C1          3.2790    1.4170    2.9040 c3        1 MOL     -0.536871
      2 C2          4.0420    1.5770    1.5490 c         1 MOL      0.685314
      3 O1          3.8580    0.8850    0.5590 o         1 MOL     -0.527821
      4 H1          3.3490    0.3820    3.2390 hc        1 MOL      0.136456
      5 H2          3.7250    2.0720    3.6530 hc        1 MOL      0.136456
      6 H3          2.2310    1.6830    2.7650 hc        1 MOL      0.136456
      7 N1          4.9470    2.5680    1.5400 n         1 MOL     -0.578655
      8 C3          6.0090    2.8800    0.5080 c3        1 MOL     -0.009519
      9 C4          6.8040    1.6270    0.1100 c         1 MOL      0.516921
     10 O2          7.1970    1.4490   -1.0730 o         1 MOL     -0.522166
     11 C5          5.3890    3.7500   -0.5830 c3        1 MOL     -0.226379
     12 C6          4.8210    5.0980   -0.1480 c         1 MOL      0.645949
     13 O3          4.9690    5.6270    0.9930 o         1 MOL     -0.621492
     14 O4          4.0850    5.7390   -0.9270 o         1 MOL     -0.621492
     15 H4          4.9540    3.1560    2.3550 hn        1 MOL      0.298728
     16 H5          6.7660    3.5010    0.9840 h1        1 MOL      0.077465
     17 H6          4.5690    3.1710   -0.9950 hc        1 MOL      0.108631
     18 H7          6.0810    4.0010   -1.3920 hc        1 MOL      0.108631
     19 N2          7.0310    0.7200    1.0480 n         1 MOL     -0.432152
     20 C7          7.8670   -0.5300    0.8760 c3        1 MOL      0.133146
     21 C8          6.9820   -1.7500    0.5860 c         1 MOL      0.498694
     22 O5          7.4830   -2.8520    0.5140 o         1 MOL     -0.567198
     23 C9          8.7920   -0.7770    2.0610 c3        1 MOL     -0.139446
     24 C10         9.8890    0.3090    2.0640 c3        1 MOL      0.102175
     25 C11        10.7320    0.0130    3.3440 c3        1 MOL     -0.035785
     26 C12        11.8570    1.0850    3.6230 c3        1 MOL      0.050023
     27 N3         12.3710    0.9750    5.0540 n4        1 MOL     -0.208451
     28 H8          6.6600    0.8440    1.9740 hn        1 MOL      0.265194
     29 H9          8.4970   -0.3970   -0.0040 h1        1 MOL      0.088716
     30 H10         9.3360   -1.7110    1.9060 hc        1 MOL      0.049627
     31 H11         8.2300   -0.7810    2.9910 hc        1 MOL      0.049627
     32 H12         9.4630    1.3080    2.1520 hc        1 MOL      0.003616
     33 H13        10.4820    0.2820    1.1440 hc        1 MOL      0.003616
     34 H14        11.2470   -0.9440    3.2780 hc        1 MOL      0.028449
     35 H15        10.0550    0.0140    4.2040 hc        1 MOL      0.028449
     36 H16        11.4280    2.0790    3.5790 hx        1 MOL      0.063087
     37 H17        12.6230    1.0110    2.8530 hx        1 MOL      0.063087
     38 H18        11.8860    1.6180    5.6730 hn        1 MOL      0.233700
     39 H19        12.3330    0.0210    5.3910 hn        1 MOL      0.233700
     40 H20        13.3160    1.3250    5.0660 hn        1 MOL      0.233700
     41 N4          5.6850   -1.6630    0.6970 n         1 MOL     -0.396007
     42 C13         4.7370   -2.7670    0.4770 c3        1 MOL      0.145591
     43 C14         4.7800   -3.2280   -0.9910 c         1 MOL      0.379618
     44 O6          5.1150   -2.4900   -1.9090 o         1 MOL     -0.408948
     45 C15         3.3260   -2.2670    0.9860 c3        1 MOL      0.052222
     46 C16         2.1430   -3.2140    0.6780 c         1 MOL      0.468877
     47 O7          1.7620   -3.3620   -0.4950 o         1 MOL     -0.687137
     48 O8          1.5980   -3.9000    1.6020 o         1 MOL     -0.687137
     49 H21         5.2980   -0.8670    1.1820 hn        1 MOL      0.223798
     50 H22         4.9810   -3.6060    1.1220 h1        1 MOL      0.016502
     51 H23         3.0700   -1.2710    0.6220 hc        1 MOL      0.029650
     52 H24         3.4910   -2.1890    2.0640 hc        1 MOL      0.029650
     53 N5          4.4900   -4.4730   -1.3030 n         1 MOL     -0.221066
     54 C17         4.5030   -5.0860   -2.6420 c3        1 MOL     -0.323224
     55 C18         3.5890   -4.3380   -3.6630 c         1 MOL      0.547264
     56 O9          3.8320   -4.3540   -4.8840 o         1 MOL     -0.551462
     57 H25         4.3830   -5.0780   -0.5000 hn        1 MOL      0.238026
     58 H26         4.2300   -6.1430   -2.5810 h1        1 MOL      0.156383
     59 H27         5.5290   -4.9590   -2.9810 h1        1 MOL      0.156383
     60 N6          2.5680   -3.5430   -3.2290 n         1 MOL     -0.222731
     61 C19         1.8070   -2.6100   -4.0850 c3        1 MOL     -0.080469
     62 C20         2.1010   -1.0810   -3.9000 c         1 MOL      0.458977
     63 O10         1.4720   -0.2390   -4.4750 o         1 MOL     -0.518290
     64 C21         0.3330   -3.0700   -4.1020 c3        1 MOL     -0.234426
     65 C22        -0.4240   -2.6980   -2.8250 c         1 MOL      0.661413
     66 N7         -0.4290   -1.4680   -2.3990 n         1 MOL     -0.481949
     67 O11        -1.0990   -3.5040   -2.2350 o         1 MOL     -0.667618
     68 H28         2.3330   -3.5360   -2.2530 hn        1 MOL      0.096709
     69 H29         2.1320   -2.6520   -5.1220 h1        1 MOL      0.150779
     70 H30         0.2360   -4.0780   -4.4920 hc        1 MOL      0.089283
     71 H31        -0.2000   -2.4940   -4.8670 hc        1 MOL      0.089283
     72 H32        -0.1340   -0.6530   -2.9240 hn        1 MOL      0.247265
     73 H33        -1.0470   -1.3490   -1.6180 hn        1 MOL      0.247265
     74 N8          3.0680   -0.7050   -3.0430 n         1 MOL     -0.156914
     75 C23         3.5820    0.6840   -2.9510 c3        1 MOL      0.086596
     76 C24         2.4800    1.7500   -2.6350 c         1 MOL      0.470396
     77 O12         2.3710    2.6640   -3.4040 o         1 MOL     -0.522466
     78 H34         3.6280   -1.4120   -2.5900 hn        1 MOL      0.100511
     79 H35         4.0080    0.9960   -3.9130 h1        1 MOL      0.025178
     80 H36         4.3790    0.8010   -2.2180 h1        1 MOL      0.025178
     81 N9          1.5970    1.5500   -1.6770 n         1 MOL     -0.147273
     82 C25         0.7350    2.5850   -1.0940 c3        1 MOL     -0.376039
     83 C26        -0.4230    2.0420   -0.1850 c         1 MOL      0.856631
     84 O13        -0.2430    1.0780    0.5420 o         1 MOL     -0.591800
     85 C27         1.5610    3.6160   -0.3450 c3        1 MOL     -0.199767
     86 C28         0.9230    4.9770   -0.1990 ca        1 MOL      0.291296
     87 C29         0.5800    5.7910   -1.2850 ca        1 MOL     -0.257288
     88 C30         0.6380    5.4400    1.1200 ca        1 MOL     -0.257288
     89 C31        -0.0630    7.0580   -1.0900 ca        1 MOL     -0.109842
     90 C32         0.1920    6.7520    1.2910 ca        1 MOL     -0.109842
     91 C33        -0.1860    7.5600    0.1980 ca        1 MOL      0.160448
     92 O14        -0.5640    8.8340    0.3950 oh        1 MOL     -0.439055
     93 H37         1.7050    0.6990   -1.1360 hn        1 MOL      0.198525
     94 H38         0.3230    3.1530   -1.9310 h1        1 MOL      0.141256
     95 H39         2.4630    3.7120   -0.9540 hc        1 MOL      0.126614
     96 H40         1.9630    3.1630    0.5560 hc        1 MOL      0.126614
     97 H41         0.8610    5.3870   -2.2380 ha        1 MOL      0.154422
     98 H42         0.8480    4.7870    1.9480 ha        1 MOL      0.154422
     99 H43        -0.4940    7.6300   -1.8970 ha        1 MOL      0.098531
    100 H44         0.0390    7.0560    2.3160 ha        1 MOL      0.098531
    101 H45        -0.5600    9.0900    1.3250 ho        1 MOL      0.350640
    102 N10        -1.6030    2.6360   -0.2410 n         1 MOL     -0.636600
    103 C34        -2.8920    2.0500    0.3240 c3        1 MOL      0.183306
    104 C35        -4.0660    2.0170   -0.6450 c         1 MOL      0.593745
    105 O15        -4.6320    0.9370   -0.9180 o         1 MOL     -0.512298
    106 C36        -3.2990    2.6340    1.6900 c3        1 MOL      0.089881
    107 C37        -2.1730    2.5440    2.7190 c3        1 MOL      0.291115
    108 C38        -4.5680    1.9700    2.3130 c3        1 MOL     -0.436258
    109 C39        -2.5500    3.1260    4.0960 c3        1 MOL     -0.663410
    110 H46        -1.6860    3.4960   -0.7550 hn        1 MOL      0.219451
    111 H47        -2.7720    0.9930    0.5710 h1        1 MOL     -0.007840
    112 H48        -3.4430    3.6920    1.4610 hc        1 MOL     -0.084258
    113 H49        -1.3300    3.1330    2.3370 hc        1 MOL     -0.018449
    114 H50        -1.8440    1.5120    2.8540 hc        1 MOL     -0.018449
    115 H51        -5.3920    1.8360    1.6120 hc        1 MOL      0.113501
    116 H52        -4.3010    0.9950    2.7290 hc        1 MOL      0.113501
    117 H53        -4.9540    2.5800    3.1270 hc        1 MOL      0.113501
    118 H54        -3.2630    2.4890    4.6150 hc        1 MOL      0.162901
    119 H55        -1.6450    3.1350    4.7140 hc        1 MOL      0.162901
    120 H56        -3.0600    4.0800    4.0180 hc        1 MOL      0.162901
    121 N11        -4.4290    3.1630   -1.2760 n         1 MOL     -0.405211
    122 C40        -5.4480    3.1410   -2.2840 c3        1 MOL     -0.047705
    123 C41        -6.9040    2.9100   -1.7340 c         1 MOL      0.215586
    124 O16        -7.7360    2.3400   -2.4110 o         1 MOL     -0.453282
    125 C42        -5.3630    4.4080   -3.1200 c3        1 MOL      0.286249
    126 O17        -4.2480    4.5250   -3.9850 oh        1 MOL     -0.609491
    127 H57        -3.7440    3.9060   -1.3820 hn        1 MOL      0.280633
    128 H58        -5.1200    2.3430   -2.9470 h1        1 MOL      0.159938
    129 H59        -5.4900    5.3590   -2.5970 h1        1 MOL     -0.004576
    130 H60        -6.2220    4.3540   -3.7790 h1        1 MOL     -0.004576
    131 H61        -4.2250    5.4430   -4.2830 ho        1 MOL      0.404818
    132 N12        -7.1270    3.1700   -0.4940 n         1 MOL     -0.128231
    133 C43        -8.3080    2.7940    0.2420 c3        1 MOL      0.273292
    134 C44        -8.6450    1.2740    0.1830 c         1 MOL      0.279980
    135 O18        -9.8290    0.9590    0.1550 o         1 MOL     -0.494334
    136 C45        -9.4840    3.7640   -0.0190 c3        1 MOL     -0.480089
    137 H62        -6.4560    3.7270    0.0200 hn        1 MOL      0.160352
    138 H63        -8.1050    3.0200    1.2900 h1        1 MOL      0.025775
    139 H64        -9.9260    3.6210   -1.0010 hc        1 MOL      0.134501
    140 H65       -10.3030    3.5700    0.6740 hc        1 MOL      0.134501
    141 H66        -9.1580    4.8010    0.0760 hc        1 MOL      0.134501
    142 N13        -7.6960    0.3560   -0.0790 n         1 MOL     -0.217096
    143 C46        -7.9870   -1.0420   -0.2500 c3        1 MOL      0.419735
    144 C47        -7.4200   -1.6930    1.0310 c         1 MOL      0.203540
    145 O19        -6.5140   -1.1600    1.6700 o         1 MOL     -0.361894
    146 C48        -7.4280   -1.6550   -1.6340 c3        1 MOL     -0.374721
    147 H67        -6.7320    0.6460   -0.1710 hn        1 MOL      0.148212
    148 H68        -9.0580   -1.2350   -0.2070 h1        1 MOL     -0.037780
    149 H69        -7.6440   -2.7170   -1.8180 hc        1 MOL      0.106095
    150 H70        -7.9680   -1.1450   -2.4270 hc        1 MOL      0.106095
    151 H71        -6.3990   -1.4140   -1.8920 hc        1 MOL      0.106095
    152 N14        -7.7610   -2.9860    1.2660 n         1 MOL     -0.311251
    153 C49        -7.0520   -3.7860    2.2620 c3        1 MOL     -0.263900
    154 C50        -7.0370   -3.2340    3.6750 c         1 MOL      0.519309
    155 O20        -6.0900   -3.4200    4.4420 o         1 MOL     -0.478263
    156 C51        -5.6760   -4.3180    1.7680 c3        1 MOL      0.260723
    157 C52        -4.5540   -3.2890    1.5850 c3        1 MOL     -0.029428
    158 C53        -3.2550   -3.8760    1.2320 c         1 MOL      0.605584
    159 O21        -2.2590   -3.6900    1.9890 o         1 MOL     -0.755244
    160 O22        -3.1220   -4.6550    0.2460 o         1 MOL     -0.755244
    161 H72        -8.5010   -3.3200    0.6650 hn        1 MOL      0.268619
    162 H73        -7.6340   -4.7050    2.3200 h1        1 MOL      0.106185
    163 H74        -5.7890   -4.7300    0.7580 hc        1 MOL     -0.030887
    164 H75        -5.4370   -5.1450    2.4290 hc        1 MOL     -0.030887
    165 H76        -4.3570   -2.6890    2.4810 hc        1 MOL      0.026451
    166 H77        -4.8120   -2.5450    0.8270 hc        1 MOL      0.026451
    167 N15        -8.1600   -2.5620    4.0970 n         1 MOL     -0.410077
    168 C54        -8.1890   -1.8660    5.4140 c3        1 MOL     -0.003606
    169 H78        -7.4480   -2.3120    6.0780 h1        1 MOL      0.053670
    170 H79        -7.9600   -0.8090    5.2720 h1        1 MOL      0.053670
    171 H80        -9.1800   -1.9660    5.8570 h1        1 MOL      0.053670
    172 H81        -8.9220   -2.4240    3.4440 hn        1 MOL      0.270703
    173 Ca1        -0.5640   -4.5670    0.1170 Ca        1 MOL      1.784121
    174 O23         1.1260   -6.1810   -0.9970 oh        1 MOL     -0.815642
    175 H82         1.8890   -6.4070   -0.4730 ho        1 MOL      0.407159
    176 H83         1.3300   -6.4960   -1.8760 ho        1 MOL      0.407159
    177 O24        -0.6280   -1.7370    0.7910 oh        1 MOL     -0.815642
    178 H84        -1.1860   -2.0580    1.4890 ho        1 MOL      0.407159
    179 H85        -0.5880   -0.7940    0.9210 ho        1 MOL      0.407159
    180 O25        -0.2280   -6.5120    2.0190 oh        1 MOL     -0.815642
    181 H86        -0.6880   -7.3460    2.0750 ho        1 MOL      0.407159
    182 H87         0.2990   -6.4790    2.8260 ho        1 MOL      0.407159
    183 O26        -1.9240   -6.2030   -1.7450 oh        1 MOL     -0.815642
    184 H88        -2.1360   -5.6570   -2.4980 ho        1 MOL      0.407159
    185 H89        -2.3920   -7.0280   -1.9020 ho        1 MOL      0.407159
@<TRIPOS>BOND
     1    1    2 1   
     2    1    4 1   
     3    1    5 1   
     4    1    6 1   
     5    2    3 2   
     6    2    7 1   
     7    7    8 1   
     8    7   15 1   
     9    8    9 1   
    10    8   11 1   
    11    8   16 1   
    12    9   10 2   
    13    9   19 1   
    14   11   12 1   
    15   11   17 1   
    16   11   18 1   
    17   12   13 1   
    18   12   14 1   
    19   19   20 1   
    20   19   28 1   
    21   20   21 1   
    22   20   23 1   
    23   20   29 1   
    24   21   22 2   
    25   21   41 1   
    26   23   24 1   
    27   23   30 1   
    28   23   31 1   
    29   24   25 1   
    30   24   32 1   
    31   24   33 1   
    32   25   26 1   
    33   25   34 1   
    34   25   35 1   
    35   26   27 1   
    36   26   36 1   
    37   26   37 1   
    38   27   38 1   
    39   27   39 1   
    40   27   40 1   
    41   41   42 1   
    42   41   49 1   
    43   42   43 1   
    44   42   45 1   
    45   42   50 1   
    46   43   44 2   
    47   43   53 1   
    48   45   46 1   
    49   45   51 1   
    50   45   52 1   
    51   46   47 1   
    52   46   48 1   
    53   53   54 1   
    54   53   57 1   
    55   54   55 1   
    56   54   58 1   
    57   54   59 1   
    58   55   56 2   
    59   55   60 1   
    60   60   61 1   
    61   60   68 1   
    62   61   62 1   
    63   61   64 1   
    64   61   69 1   
    65   62   63 2   
    66   62   74 1   
    67   64   65 1   
    68   64   70 1   
    69   64   71 1   
    70   65   66 1   
    71   65   67 2   
    72   66   72 1   
    73   66   73 1   
    74   74   75 1   
    75   74   78 1   
    76   75   76 1   
    77   75   79 1   
    78   75   80 1   
    79   76   77 2   
    80   76   81 1   
    81   81   82 1   
    82   81   93 1   
    83   82   83 1   
    84   82   85 1   
    85   82   94 1   
    86   83   84 2   
    87   83  102 1   
    88   85   86 1   
    89   85   95 1   
    90   85   96 1   
    91   86   87 ar  
    92   86   88 ar  
    93   87   89 ar  
    94   87   97 1   
    95   88   90 ar  
    96   88   98 1   
    97   89   91 ar  
    98   89   99 1   
    99   90   91 ar  
   100   90  100 1   
   101   91   92 1   
   102   92  101 1   
   103  102  103 1   
   104  102  110 1   
   105  103  104 1   
   106  103  106 1   
   107  103  111 1   
   108  104  105 2   
   109  104  121 1   
   110  106  107 1   
   111  106  108 1   
   112  106  112 1   
   113  107  109 1   
   114  107  113 1   
   115  107  114 1   
   116  108  115 1   
   117  108  116 1   
   118  108  117 1   
   119  109  118 1   
   120  109  119 1   
   121  109  120 1   
   122  121  122 1   
   123  121  127 1   
   124  122  123 1   
   125  122  125 1   
   126  122  128 1   
   127  123  124 2   
   128  123  132 1   
   129  125  126 1   
   130  125  129 1   
   131  125  130 1   
   132  126  131 1   
   133  132  133 1   
   134  132  137 1   
   135  133  134 1   
   136  133  136 1   
   137  133  138 1   
   138  134  135 2   
   139  134  142 1   
   140  136  139 1   
   141  136  140 1   
   142  136  141 1   
   143  142  143 1   
   144  142  147 1   
   145  143  144 1   
   146  143  146 1   
   147  143  148 1   
   148  144  145 2   
   149  144  152 1   
   150  146  149 1   
   151  146  150 1   
   152  146  151 1   
   153  152  153 1   
   154  152  161 1   
   155  153  154 1   
   156  153  156 1   
   157  153  162 1   
   158  154  155 2   
   159  154  167 1   
   160  156  157 1   
   161  156  163 1   
   162  156  164 1   
   163  157  158 1   
   164  157  165 1   
   165  157  166 1   
   166  158  159 1   
   167  158  160 1   
   168  167  168 1   
   169  167  172 1   
   170  168  169 1   
   171  168  170 1   
   172  168  171 1   
   173  174  175 1   
   174  174  176 1   
   175  177  178 1   
   176  177  179 1   
   177  180  181 1   
   178  180  182 1   
   179  183  184 1   
   180  183  185 1   
@<TRIPOS>SUBSTRUCTURE
     1 MOL         1 TEMP              0 ****  ****    0 ROOT
