@<TRIPOS>MOLECULE
MOL
  186   183     1     0     0
SMALL
resp


@<TRIPOS>ATOM
      1 C1         11.9110    5.9560   -3.2000 c3        1 MOL     -0.405394
      2 C2         11.6910    4.8030   -2.1160 c         1 MOL      0.671135
      3 O1         11.8880    3.5970   -2.3340 o         1 MOL     -0.575181
      4 H1         11.6360    5.5830   -4.1870 hc        1 MOL      0.105554
      5 H2         11.2870    6.8140   -2.9510 hc        1 MOL      0.105554
      6 H3         12.9580    6.2560   -3.2050 hc        1 MOL      0.105554
      7 N1         11.2270    5.2140   -0.9380 n         1 MOL     -0.380722
      8 C3         10.9670    4.2610    0.1760 c3        1 MOL     -0.605319
      9 C4          9.8050    3.2380   -0.1350 c         1 MOL      0.790997
     10 O2          8.6430    3.5610   -0.2170 o         1 MOL     -0.661155
     11 C5         10.6660    4.9990    1.4760 c3        1 MOL      0.362730
     12 C6          9.5670    5.9980    1.4030 c         1 MOL      0.553968
     13 O3          8.3310    5.6180    1.5360 o         1 MOL     -0.706472
     14 O4          9.8950    7.1820    1.2260 o         1 MOL     -0.706472
     15 H4         11.1300    6.2100   -0.7860 hn        1 MOL      0.334974
     16 H5         11.8680    3.6970    0.4180 h1        1 MOL      0.193509
     17 H6         11.5750    5.4830    1.8240 hc        1 MOL     -0.020964
     18 H7         10.4390    4.2670    2.2500 hc        1 MOL     -0.020964
     19 N2         10.2010    1.9820   -0.3960 n         1 MOL     -0.435295
     20 C7          9.3180    0.8910   -0.7230 c3        1 MOL     -0.044149
     21 C8          8.3170    0.5240    0.3100 c         1 MOL      0.698012
     22 O5          8.5810    0.5290    1.4810 o         1 MOL     -0.534610
     23 C9         10.2070   -0.3290   -1.0060 c3        1 MOL     -0.141475
     24 C10         9.4360   -1.4840   -1.6430 c3        1 MOL     -0.035540
     25 C11        10.3180   -2.7400   -1.8170 c3        1 MOL     -0.116397
     26 C12         9.5460   -3.7770   -2.5700 c3        1 MOL      0.172521
     27 N3         10.2870   -4.9780   -2.8410 n4        1 MOL     -0.230848
     28 H8         11.1860    1.8070   -0.2350 hn        1 MOL      0.282875
     29 H9          8.8050    1.1670   -1.6400 h1        1 MOL      0.101183
     30 H10        10.6780   -0.5650   -0.0590 hc        1 MOL      0.067276
     31 H11        11.0150   -0.0190   -1.6650 hc        1 MOL      0.067276
     32 H12         9.0810   -0.9950   -2.5510 hc        1 MOL      0.042884
     33 H13         8.5970   -1.6510   -0.9650 hc        1 MOL      0.042884
     34 H14        10.5080   -3.1780   -0.8360 hc        1 MOL      0.060092
     35 H15        11.2250   -2.5040   -2.3710 hc        1 MOL      0.060092
     36 H16         9.1920   -3.4490   -3.5420 hx        1 MOL      0.029198
     37 H17         8.6790   -3.9220   -1.9180 hx        1 MOL      0.029198
     38 H18        10.5810   -5.4920   -2.0260 hn        1 MOL      0.238392
     39 H19         9.7270   -5.5920   -3.4180 hn        1 MOL      0.238392
     40 H20        11.0950   -4.7600   -3.4030 hn        1 MOL      0.238392
     41 N4          7.1120    0.2550   -0.1750 n         1 MOL     -0.464080
     42 C13         5.9730   -0.2250    0.6460 c3        1 MOL      0.051738
     43 C14         4.7420   -0.6470   -0.1730 c         1 MOL      0.494720
     44 O6          4.5330   -0.2540   -1.3380 o         1 MOL     -0.535050
     45 C15         5.5500    0.7620    1.6450 c3        1 MOL      0.255766
     46 C16         5.6380    2.2730    1.2520 c         1 MOL      0.591493
     47 O7          5.3350    2.5970    0.0870 o         1 MOL     -0.745655
     48 O8          6.0930    3.1480    2.0380 o         1 MOL     -0.745655
     49 H21         6.9430    0.3520   -1.1630 hn        1 MOL      0.203590
     50 H22         6.2920   -1.1840    1.0460 h1        1 MOL      0.063465
     51 H23         6.2090    0.6430    2.5110 hc        1 MOL     -0.041245
     52 H24         4.5230    0.6210    1.9740 hc        1 MOL     -0.041245
     53 N5          3.9340   -1.5380    0.3180 n         1 MOL     -0.459138
     54 C17         3.8490   -2.0440    1.6790 c3        1 MOL     -0.050529
     55 C18         3.5160   -3.5720    1.8760 c         1 MOL      0.642334
     56 O9          3.8400   -4.4320    1.0370 o         1 MOL     -0.590354
     57 H25         3.0520   -1.6660   -0.1690 hn        1 MOL      0.348233
     58 H26         3.1460   -1.4600    2.2710 h1        1 MOL      0.051301
     59 H27         4.8030   -1.8720    2.1900 h1        1 MOL      0.051301
     60 N6          2.8030   -3.8970    2.9870 n         1 MOL     -0.573364
     61 C19         2.6320   -5.3160    3.3830 c3        1 MOL      0.227646
     62 C20         1.6290   -5.9920    2.4470 c         1 MOL      0.385203
     63 O10         0.4150   -5.8230    2.6560 o         1 MOL     -0.489880
     64 C21         2.3440   -5.4210    4.8480 c3        1 MOL     -0.211258
     65 C22         2.5900   -6.8610    5.4290 c         1 MOL      0.661721
     66 O11         3.2440   -6.9390    6.4960 o         1 MOL     -0.632413
     67 O12         2.3340   -7.8700    4.7490 o         1 MOL     -0.632413
     68 H28         2.4620   -3.1430    3.5660 hn        1 MOL      0.306883
     69 H29         3.5780   -5.8230    3.2150 h1        1 MOL      0.027740
     70 H30         1.3560   -5.0380    5.0920 hc        1 MOL      0.050966
     71 H31         3.0500   -4.8230    5.4220 hc        1 MOL      0.050966
     72 N7          2.1110   -6.7610    1.4850 n         1 MOL     -0.271542
     73 C23         1.3410   -7.3040    0.3870 c3        1 MOL     -0.122546
     74 C24         0.7060   -6.3630   -0.6160 c         1 MOL      0.570692
     75 O13        -0.2130   -6.8310   -1.2770 o         1 MOL     -0.551361
     76 H32         3.0970   -6.9540    1.4460 hn        1 MOL      0.259044
     77 H33         0.6650   -8.0700    0.7690 h1        1 MOL      0.097725
     78 H34         2.0820   -7.8460   -0.2100 h1        1 MOL      0.097725
     79 N8          1.1340   -5.0610   -0.7450 n         1 MOL     -0.377241
     80 C25         0.5760   -4.0700   -1.6490 c3        1 MOL     -0.071199
     81 C26         0.1110   -2.8840   -0.8600 c         1 MOL      0.714913
     82 O14         0.9130   -2.2340   -0.1820 o         1 MOL     -0.585528
     83 C27         1.6490   -3.6250   -2.6800 c3        1 MOL      0.349285
     84 C28         2.0890   -4.7300   -3.7430 c3        1 MOL     -0.221809
     85 O15         1.2100   -2.4880   -3.3990 oh        1 MOL     -0.631628
     86 H35         1.8240   -4.6610   -0.1280 hn        1 MOL      0.236273
     87 H36        -0.3110   -4.4450   -2.1710 h1        1 MOL      0.075272
     88 H37         2.5220   -3.3080   -2.1090 h1        1 MOL     -0.057128
     89 H38         1.9200   -2.3530   -4.0320 ho        1 MOL      0.399376
     90 H39         1.2640   -4.9140   -4.4250 hc        1 MOL      0.052633
     91 H40         2.9080   -4.4880   -4.4190 hc        1 MOL      0.052633
     92 H41         2.4260   -5.6230   -3.2210 hc        1 MOL      0.052633
     93 N9         -1.1870   -2.5450   -1.0890 n         1 MOL     -0.467064
     94 C29        -1.9350   -1.6210   -0.2240 c3        1 MOL     -0.323536
     95 C30        -3.3960   -1.9480    0.1720 c         1 MOL      0.663484
     96 O16        -3.7950   -1.5770    1.2600 o         1 MOL     -0.545293
     97 C31        -1.8190   -0.1680   -0.8720 c3        1 MOL      0.199433
     98 C32        -2.2210    0.9040    0.1240 c3        1 MOL      0.172391
     99 C33        -2.5810   -0.1640   -2.2230 c3        1 MOL     -0.273517
    100 C34        -1.6200    2.3250   -0.1660 c3        1 MOL     -0.252900
    101 H42        -1.6560   -3.0850   -1.7990 hn        1 MOL      0.307998
    102 H43        -1.4840   -1.5870    0.7660 h1        1 MOL      0.177053
    103 H44        -0.7730   -0.0360   -1.1390 hc        1 MOL      0.045930
    104 H45        -1.7840    0.6040    1.0740 hc        1 MOL     -0.017018
    105 H46        -3.2990    0.9310    0.3070 hc        1 MOL     -0.017018
    106 H47        -3.6340   -0.3980   -2.0640 hc        1 MOL      0.057267
    107 H48        -2.4410    0.8060   -2.7100 hc        1 MOL      0.057267
    108 H49        -2.0540   -0.9140   -2.8120 hc        1 MOL      0.057267
    109 H50        -1.5980    2.9260    0.7390 hc        1 MOL      0.056214
    110 H51        -0.6200    2.2590   -0.5940 hc        1 MOL      0.056214
    111 H52        -2.2940    2.7280   -0.9170 hc        1 MOL      0.056214
    112 N10        -4.2750   -2.5310   -0.6670 n         1 MOL     -0.415401
    113 C35        -5.6830   -2.7300   -0.3030 c3        1 MOL     -0.195096
    114 C36        -6.5770   -2.4220   -1.5300 c         1 MOL      0.663466
    115 O17        -6.2560   -2.6420   -2.7220 o         1 MOL     -0.549231
    116 C37        -5.8370   -4.2080    0.2480 c3        1 MOL      0.380086
    117 C38        -7.2610   -4.6040    0.6550 c3        1 MOL     -0.337550
    118 O18        -5.4560   -5.1120   -0.6930 oh        1 MOL     -0.556289
    119 H53        -3.9330   -2.6630   -1.6130 hn        1 MOL      0.273930
    120 H54        -6.0060   -2.0750    0.4990 h1        1 MOL      0.112433
    121 H55        -5.1380   -4.3300    1.0700 h1        1 MOL      0.036294
    122 H56        -4.5560   -4.8740   -0.9130 ho        1 MOL      0.350281
    123 H57        -7.1830   -5.4120    1.3890 hc        1 MOL      0.089081
    124 H58        -7.8230   -3.7710    1.0650 hc        1 MOL      0.089081
    125 H59        -7.8450   -5.0110   -0.1730 hc        1 MOL      0.089081
    126 N11        -7.7190   -1.7720   -1.2970 n         1 MOL     -0.615598
    127 C39        -8.5800   -1.2270   -2.3700 c3        1 MOL      0.119140
    128 C40        -9.1020    0.1600   -2.0230 c         1 MOL      0.481704
    129 O19        -9.4130    0.9300   -2.9530 o         1 MOL     -0.553899
    130 C41        -9.7210   -2.1750   -2.6800 c3        1 MOL      0.207326
    131 C42       -10.4380   -1.7530   -3.9370 c3        1 MOL     -0.389077
    132 O20       -10.7000   -2.3560   -1.6080 oh        1 MOL     -0.659774
    133 H60        -7.9670   -1.5980   -0.3320 hn        1 MOL      0.360115
    134 H61        -7.9850   -1.1900   -3.2910 h1        1 MOL      0.126396
    135 H62        -9.2630   -3.1300   -2.9110 h1        1 MOL      0.083667
    136 H63       -11.3220   -3.0200   -1.9000 ho        1 MOL      0.404481
    137 H64       -10.8160   -0.7300   -3.8840 hc        1 MOL      0.106730
    138 H65        -9.7600   -2.0020   -4.7490 hc        1 MOL      0.106730
    139 H66       -11.3140   -2.3480   -4.1850 hc        1 MOL      0.106730
    140 N12        -9.1820    0.6000   -0.7820 n         1 MOL     -0.340404
    141 C43        -9.5390    1.9580   -0.4170 c3        1 MOL      0.133129
    142 C44        -8.6250    2.6740    0.5800 c         1 MOL      0.416025
    143 O21        -7.7850    2.0250    1.2170 o         1 MOL     -0.502324
    144 C45       -11.0050    1.9740    0.1080 c3        1 MOL     -0.094487
    145 C46       -11.9970    1.3560   -0.9640 c3        1 MOL     -0.009398
    146 C47       -13.5270    1.6080   -0.5140 c3        1 MOL     -0.086846
    147 C48       -13.9130    0.8480    0.7090 c3        1 MOL     -0.011947
    148 N13       -13.6660   -0.5930    0.7800 n4        1 MOL     -0.189115
    149 H67        -8.8120    0.0510   -0.0130 hn        1 MOL      0.214024
    150 H68        -9.5800    2.5680   -1.3230 h1        1 MOL      0.079819
    151 H69       -11.3620    2.9920    0.2650 hc        1 MOL      0.043397
    152 H70       -11.1800    1.4230    1.0280 hc        1 MOL      0.043397
    153 H71       -11.7640    0.2890   -1.0910 hc        1 MOL      0.044138
    154 H72       -11.8620    1.9110   -1.8940 hc        1 MOL      0.044138
    155 H73       -14.1490    1.1230   -1.2590 hc        1 MOL      0.063000
    156 H74       -13.7000    2.6860   -0.5390 hc        1 MOL      0.063000
    157 H75       -14.9820    0.9830    0.8340 hx        1 MOL      0.075042
    158 H76       -13.5040    1.4100    1.5480 hx        1 MOL      0.075042
    159 H77       -14.1150   -0.9420    1.6160 hn        1 MOL      0.223565
    160 H78       -14.1340   -1.1180    0.0540 hn        1 MOL      0.223565
    161 H79       -12.6990   -0.7520    1.0170 hn        1 MOL      0.223565
    162 N14        -8.8050    3.9800    0.6590 n         1 MOL     -0.537699
    163 C49        -7.9770    4.8440    1.4860 c3        1 MOL      0.460808
    164 C50        -6.4080    4.6790    1.3960 c         1 MOL      0.351056
    165 O22        -5.7670    4.7520    2.4410 o         1 MOL     -0.543042
    166 C51        -8.3360    6.2870    1.2570 c3        1 MOL     -0.199737
    167 C52        -7.6660    7.3420    2.2510 c3        1 MOL     -0.215336
    168 C53        -8.4330    8.6920    2.2580 c         1 MOL      0.751558
    169 O23        -8.3010    9.4620    1.2730 o         1 MOL     -0.657683
    170 O24        -9.0790    9.0000    3.2310 o         1 MOL     -0.657683
    171 H80        -9.5530    4.3290    0.0940 hn        1 MOL      0.267231
    172 H81        -8.2590    4.5320    2.4920 h1        1 MOL      0.005095
    173 H82        -9.3950    6.2290    1.4950 hc        1 MOL      0.049634
    174 H83        -8.2740    6.5510    0.2030 hc        1 MOL      0.049634
    175 H84        -6.6120    7.5260    2.0110 hc        1 MOL      0.060308
    176 H85        -7.8160    7.0100    3.2740 hc        1 MOL      0.060308
    177 N15        -5.7210    4.2840    0.3220 n         1 MOL     -0.274360
    178 C54        -6.1030    4.2550   -1.1090 c3        1 MOL     -0.055494
    179 H86        -5.8250    3.2920   -1.5380 h1        1 MOL      0.052660
    180 H87        -7.1790    4.3970   -1.2010 h1        1 MOL      0.052660
    181 H88        -5.5830    5.0520   -1.6400 h1        1 MOL      0.052660
    182 H89        -4.8030    3.9310    0.5600 hn        1 MOL      0.258911
    183 Ca1         6.3120    4.9780    0.0670 Ca        1 MOL      1.707340
    184 O25         5.2530    4.3470   -2.4290 oh        1 MOL     -0.841741
    185 H90         4.4500    4.1240   -2.8960 ho        1 MOL      0.427336
    186 H91         5.9070    4.4390   -3.1160 ho        1 MOL      0.427336
@<TRIPOS>BOND
     1    1    2 1   
     2    1    4 1   
     3    1    5 1   
     4    1    6 1   
     5    2    3 2   
     6    2    7 1   
     7    7    8 1   
     8    7   15 1   
     9    8    9 1   
    10    8   11 1   
    11    8   16 1   
    12    9   10 2   
    13    9   19 1   
    14   11   12 1   
    15   11   17 1   
    16   11   18 1   
    17   12   13 1   
    18   12   14 1   
    19   19   20 1   
    20   19   28 1   
    21   20   21 1   
    22   20   23 1   
    23   20   29 1   
    24   21   22 2   
    25   21   41 1   
    26   23   24 1   
    27   23   30 1   
    28   23   31 1   
    29   24   25 1   
    30   24   32 1   
    31   24   33 1   
    32   25   26 1   
    33   25   34 1   
    34   25   35 1   
    35   26   27 1   
    36   26   36 1   
    37   26   37 1   
    38   27   38 1   
    39   27   39 1   
    40   27   40 1   
    41   41   42 1   
    42   41   49 1   
    43   42   43 1   
    44   42   45 1   
    45   42   50 1   
    46   43   44 2   
    47   43   53 1   
    48   45   46 1   
    49   45   51 1   
    50   45   52 1   
    51   46   47 1   
    52   46   48 1   
    53   53   54 1   
    54   53   57 1   
    55   54   55 1   
    56   54   58 1   
    57   54   59 1   
    58   55   56 2   
    59   55   60 1   
    60   60   61 1   
    61   60   68 1   
    62   61   62 1   
    63   61   64 1   
    64   61   69 1   
    65   62   63 2   
    66   62   72 1   
    67   64   65 1   
    68   64   70 1   
    69   64   71 1   
    70   65   66 1   
    71   65   67 1   
    72   72   73 1   
    73   72   76 1   
    74   73   74 1   
    75   73   77 1   
    76   73   78 1   
    77   74   75 2   
    78   74   79 1   
    79   79   80 1   
    80   79   86 1   
    81   80   81 1   
    82   80   83 1   
    83   80   87 1   
    84   81   82 2   
    85   81   93 1   
    86   83   84 1   
    87   83   85 1   
    88   83   88 1   
    89   84   90 1   
    90   84   91 1   
    91   84   92 1   
    92   85   89 1   
    93   93   94 1   
    94   93  101 1   
    95   94   95 1   
    96   94   97 1   
    97   94  102 1   
    98   95   96 2   
    99   95  112 1   
   100   97   98 1   
   101   97   99 1   
   102   97  103 1   
   103   98  100 1   
   104   98  104 1   
   105   98  105 1   
   106   99  106 1   
   107   99  107 1   
   108   99  108 1   
   109  100  109 1   
   110  100  110 1   
   111  100  111 1   
   112  112  113 1   
   113  112  119 1   
   114  113  114 1   
   115  113  116 1   
   116  113  120 1   
   117  114  115 2   
   118  114  126 1   
   119  116  117 1   
   120  116  118 1   
   121  116  121 1   
   122  117  123 1   
   123  117  124 1   
   124  117  125 1   
   125  118  122 1   
   126  126  127 1   
   127  126  133 1   
   128  127  128 1   
   129  127  130 1   
   130  127  134 1   
   131  128  129 2   
   132  128  140 1   
   133  130  131 1   
   134  130  132 1   
   135  130  135 1   
   136  131  137 1   
   137  131  138 1   
   138  131  139 1   
   139  132  136 1   
   140  140  141 1   
   141  140  149 1   
   142  141  142 1   
   143  141  144 1   
   144  141  150 1   
   145  142  143 2   
   146  142  162 1   
   147  144  145 1   
   148  144  151 1   
   149  144  152 1   
   150  145  146 1   
   151  145  153 1   
   152  145  154 1   
   153  146  147 1   
   154  146  155 1   
   155  146  156 1   
   156  147  148 1   
   157  147  157 1   
   158  147  158 1   
   159  148  159 1   
   160  148  160 1   
   161  148  161 1   
   162  162  163 1   
   163  162  171 1   
   164  163  164 1   
   165  163  166 1   
   166  163  172 1   
   167  164  165 2   
   168  164  177 1   
   169  166  167 1   
   170  166  173 1   
   171  166  174 1   
   172  167  168 1   
   173  167  175 1   
   174  167  176 1   
   175  168  169 1   
   176  168  170 1   
   177  177  178 1   
   178  177  182 1   
   179  178  179 1   
   180  178  180 1   
   181  178  181 1   
   182  184  185 1   
   183  184  186 1   
@<TRIPOS>SUBSTRUCTURE
     1 MOL         1 TEMP              0 ****  ****    0 ROOT
