@<TRIPOS>MOLECULE
MOL
  181   177     1     0     0
SMALL
resp


@<TRIPOS>ATOM
      1 C1          0.2790    6.8220   -2.1020 c3        1 MOL     -0.342117
      2 C2          1.6200    6.6800   -1.4810 c         1 MOL      0.740089
      3 O1          1.7860    7.0900   -0.3350 o         1 MOL     -0.598604
      4 H1         -0.4200    6.1410   -1.6170 hc        1 MOL      0.075053
      5 H2         -0.0710    7.8470   -1.9830 hc        1 MOL      0.075053
      6 H3          0.3420    6.5800   -3.1630 hc        1 MOL      0.075053
      7 N1          2.5660    6.1560   -2.2490 n         1 MOL     -0.662028
      8 C3          3.8930    5.9180   -1.6620 c3        1 MOL      0.367636
      9 C4          3.8590    4.8670   -0.4830 c         1 MOL      0.521193
     10 O2          3.5120    3.6900   -0.7030 o         1 MOL     -0.593507
     11 C5          4.8970    5.4140   -2.7310 c3        1 MOL     -0.434671
     12 C6          6.3550    5.2840   -2.1480 c         1 MOL      0.768378
     13 O3          6.6830    6.0390   -1.2020 o         1 MOL     -0.729288
     14 O4          7.2030    4.4680   -2.5490 o         1 MOL     -0.729288
     15 H4          2.5270    5.7900   -3.1920 hn        1 MOL      0.330992
     16 H5          4.2800    6.8180   -1.1800 h1        1 MOL     -0.037319
     17 H6          4.9790    6.2180   -3.4620 hc        1 MOL      0.072411
     18 H7          4.5680    4.4830   -3.1850 hc        1 MOL      0.072411
     19 N2          4.3560    5.2750    0.6610 n         1 MOL     -0.398482
     20 C7          4.3810    4.3140    1.8160 c3        1 MOL      0.222720
     21 C8          3.0490    3.7670    2.3810 c         1 MOL      0.478788
     22 O5          2.0090    4.3760    2.1580 o         1 MOL     -0.543187
     23 C9          5.0830    5.1410    2.9610 c3        1 MOL     -0.354679
     24 H8          4.7230    6.1970    0.8360 hn        1 MOL      0.277642
     25 H9          5.0850    3.5320    1.5220 h1        1 MOL      0.092166
     26 H10         4.9030    4.6730    3.9180 hc        1 MOL      0.090936
     27 H11         6.1670    5.2340    2.8260 hc        1 MOL      0.090936
     28 H12         4.5670    6.0840    3.1400 hc        1 MOL      0.090936
     29 N3          3.0060    2.5850    3.0290 n         1 MOL     -0.445083
     30 C10         4.0890    1.7270    3.5330 c3        1 MOL      0.168205
     31 C11         4.4520    0.6590    2.4930 c         1 MOL      0.312261
     32 O6          3.8940    0.5870    1.4440 o         1 MOL     -0.345372
     33 C12         3.5100    1.0380    4.8300 c3        1 MOL     -0.295671
     34 C13         2.1060    0.3980    4.6590 c         1 MOL      0.656189
     35 O7          1.5200    0.3480    3.5220 o         1 MOL     -0.634567
     36 O8          1.5790   -0.1490    5.6640 o         1 MOL     -0.634567
     37 H13         2.0490    2.2420    3.1210 hn        1 MOL      0.267063
     38 H14         4.9330    2.3520    3.8140 h1        1 MOL      0.018814
     39 H15         3.5470    1.7680    5.6340 hc        1 MOL      0.060006
     40 H16         4.2350    0.3190    5.2090 hc        1 MOL      0.060006
     41 N4          5.5160   -0.1230    2.7560 n         1 MOL     -0.452208
     42 C14         6.0740   -1.1560    1.8840 c3        1 MOL      0.025953
     43 C15         7.1600   -0.6850    0.8870 c         1 MOL      0.540518
     44 O9          7.6350    0.4200    0.9650 o         1 MOL     -0.474298
     45 H17         5.8790    0.0650    3.6750 hn        1 MOL      0.291150
     46 H18         5.2430   -1.5690    1.3280 h1        1 MOL      0.042741
     47 H19         6.5640   -1.9190    2.4980 h1        1 MOL      0.042741
     48 N5          7.5780   -1.5140   -0.1140 n         1 MOL     -0.518371
     49 C16         7.0660   -2.8260   -0.4450 c3        1 MOL      0.072784
     50 C17         5.8430   -2.7240   -1.3510 c         1 MOL      0.485669
     51 O10         5.3140   -1.6590   -1.5980 o         1 MOL     -0.421510
     52 C18         8.2220   -3.6860   -1.0250 c3        1 MOL     -0.252780
     53 C19         8.7210   -3.2430   -2.3490 c         1 MOL      0.666746
     54 N6          8.8250   -4.1990   -3.2500 n         1 MOL     -0.811663
     55 O11         9.0200   -2.1030   -2.5990 o         1 MOL     -0.483284
     56 H20         8.3590   -1.1430   -0.6340 hn        1 MOL      0.313454
     57 H21         6.7470   -3.3890    0.4300 h1        1 MOL      0.061337
     58 H22         8.0090   -4.7510   -0.9590 hc        1 MOL      0.076427
     59 H23         9.0730   -3.6820   -0.3380 hc        1 MOL      0.076427
     60 H24         8.4650   -5.0990   -2.9910 hn        1 MOL      0.368215
     61 H25         9.0150   -3.9830   -4.2240 hn        1 MOL      0.368215
     62 N7          5.5640   -3.7780   -2.0950 n         1 MOL     -0.262803
     63 C20         4.5080   -3.7780   -3.1830 c3        1 MOL     -0.316818
     64 C21         3.1220   -4.1820   -2.6540 c         1 MOL      0.594238
     65 O12         2.0830   -3.9390   -3.2890 o         1 MOL     -0.564976
     66 H26         6.1810   -4.5560   -1.9390 hn        1 MOL      0.184426
     67 H27         4.8720   -4.5070   -3.9020 h1        1 MOL      0.164282
     68 H28         4.4740   -2.7980   -3.6700 h1        1 MOL      0.164282
     69 N8          2.9540   -4.6280   -1.4110 n         1 MOL     -0.441751
     70 C22         1.5600   -5.0750   -0.9200 c3        1 MOL     -0.087100
     71 C23         0.4920   -3.9070   -0.8270 c         1 MOL      0.776177
     72 O13         0.7440   -2.8720   -0.2710 o         1 MOL     -0.662844
     73 C24         1.7060   -5.6830    0.4950 c3        1 MOL      0.308041
     74 C25         0.3940   -6.1140    1.1330 c3        1 MOL     -0.346787
     75 O14         2.5660   -6.7280    0.3120 oh        1 MOL     -0.611013
     76 H29         3.6830   -4.7140   -0.7240 hn        1 MOL      0.248195
     77 H30         1.1840   -5.7970   -1.6400 h1        1 MOL      0.058051
     78 H31         2.1680   -4.8910    1.0890 h1        1 MOL      0.075324
     79 H32         2.0010   -7.4210   -0.0420 ho        1 MOL      0.372772
     80 H33        -0.1430   -6.8450    0.5420 hc        1 MOL      0.097166
     81 H34         0.6990   -6.6010    2.0560 hc        1 MOL      0.097166
     82 H35        -0.2930   -5.2730    1.2260 hc        1 MOL      0.097166
     83 N9         -0.6410   -4.2330   -1.4330 n         1 MOL     -0.461068
     84 C26        -1.8670   -3.5360   -1.2830 c3        1 MOL      0.054956
     85 C27        -2.3890   -3.6890    0.1640 c         1 MOL      0.190110
     86 O15        -2.4880   -4.7790    0.6800 o         1 MOL     -0.503549
     87 C28        -2.8570   -3.9260   -2.4100 c3        1 MOL      0.211563
     88 C29        -4.0630   -3.0280   -2.4030 c3        1 MOL      0.147258
     89 C30        -2.3510   -4.0140   -3.8380 c3        1 MOL     -0.326328
     90 C31        -5.3130   -3.6240   -2.9480 c3        1 MOL     -0.223356
     91 H36        -0.8070   -5.1790   -1.7450 hn        1 MOL      0.265359
     92 H37        -1.7190   -2.4600   -1.4180 h1        1 MOL      0.123531
     93 H38        -3.1170   -4.9350   -2.1190 hc        1 MOL     -0.020574
     94 H39        -3.8130   -2.1550   -3.0090 hc        1 MOL     -0.029346
     95 H40        -4.2590   -2.7070   -1.3820 hc        1 MOL     -0.029346
     96 H41        -1.4210   -4.5930   -3.8530 hc        1 MOL      0.072971
     97 H42        -2.9620   -4.4840   -4.6060 hc        1 MOL      0.072971
     98 H43        -1.9900   -3.0220   -4.1350 hc        1 MOL      0.072971
     99 H44        -5.1770   -3.8470   -4.0100 hc        1 MOL      0.037940
    100 H45        -5.6770   -4.5620   -2.5160 hc        1 MOL      0.037940
    101 H46        -6.1550   -2.9230   -2.8830 hc        1 MOL      0.037940
    102 N10        -2.8420   -2.6410    0.8350 n         1 MOL     -0.040121
    103 C32        -3.4370   -2.7050    2.2250 c3        1 MOL      0.049902
    104 C33        -4.7750   -1.9200    2.2950 c         1 MOL      0.346725
    105 O16        -5.5790   -2.1770    3.1930 o         1 MOL     -0.531143
    106 C34        -2.4770   -2.0150    3.2650 c3        1 MOL      0.221674
    107 C35        -1.0490   -2.6170    3.2990 c         1 MOL      0.569676
    108 O17        -0.8010   -3.4590    4.1770 o         1 MOL     -0.668839
    109 O18        -0.1860   -2.2910    2.4570 o         1 MOL     -0.668839
    110 H47        -2.8240   -1.8020    0.2710 hn        1 MOL     -0.016252
    111 H48        -3.5420   -3.7010    2.6610 h1        1 MOL      0.097166
    112 H49        -2.9710   -2.3260    4.1870 hc        1 MOL     -0.068363
    113 H50        -2.4820   -0.9310    3.0960 hc        1 MOL     -0.068363
    114 N11        -5.0980   -1.1590    1.2900 n         1 MOL     -0.484144
    115 C36        -6.3340   -0.3920    1.1960 c3        1 MOL      0.325728
    116 C37        -6.2480    0.9460    0.4050 c         1 MOL      0.243099
    117 O19        -6.9320    1.1290   -0.5790 o         1 MOL     -0.404256
    118 C38        -7.5030   -1.2540    0.6650 c3        1 MOL     -0.341060
    119 C39        -8.8880   -0.7290    0.7140 ca        1 MOL      0.080705
    120 C40        -9.6960   -0.7990   -0.4310 ca        1 MOL     -0.086537
    121 C41        -9.4230   -0.1160    1.8410 ca        1 MOL     -0.086537
    122 C42       -11.0230   -0.3770   -0.3630 ca        1 MOL     -0.157752
    123 C43       -10.7450    0.3450    1.8940 ca        1 MOL     -0.157752
    124 C44       -11.5540    0.2140    0.7740 ca        1 MOL     -0.105646
    125 H51        -4.3470   -0.8820    0.6770 hn        1 MOL      0.459493
    126 H52        -6.5410   -0.1860    2.2390 h1        1 MOL      0.029556
    127 H53        -7.5620   -2.1520    1.2750 hc        1 MOL      0.123902
    128 H54        -7.2150   -1.5150   -0.3500 hc        1 MOL      0.123902
    129 H55        -9.3580   -1.4160   -1.2430 ha        1 MOL      0.092597
    130 H56        -8.8030    0.0330    2.7080 ha        1 MOL      0.092597
    131 H57       -11.5950   -0.6360   -1.2500 ha        1 MOL      0.102218
    132 H58       -11.1720    0.8560    2.7440 ha        1 MOL      0.102218
    133 H59       -12.5810    0.5440    0.8380 ha        1 MOL      0.092091
    134 N12        -5.4160    1.8440    0.9610 n         1 MOL     -0.108317
    135 C45        -5.2700    3.2660    0.4740 c3        1 MOL     -0.016524
    136 C46        -5.0150    3.4260   -1.0830 c         1 MOL      0.267433
    137 O20        -5.6200    4.2750   -1.6750 o         1 MOL     -0.470876
    138 C47        -4.0570    3.8630    1.2310 c3        1 MOL      0.103843
    139 C48        -4.1330    3.1240    2.5740 c3        1 MOL     -0.398180
    140 C49        -4.5550    1.6620    2.1250 c3        1 MOL     -0.082290
    141 H60        -6.1470    3.8320    0.8000 h1        1 MOL      0.085830
    142 H61        -3.0780    3.6630    0.7910 hc        1 MOL      0.030169
    143 H62        -4.2960    4.9240    1.2960 hc        1 MOL      0.030169
    144 H63        -3.1970    2.9730    3.1120 hc        1 MOL      0.134968
    145 H64        -4.9450    3.5210    3.1780 hc        1 MOL      0.134968
    146 H65        -3.6270    1.1650    1.8380 h1        1 MOL      0.122240
    147 H66        -4.9830    1.0910    2.9440 h1        1 MOL      0.122240
    148 N13        -4.1210    2.6130   -1.5520 n         1 MOL     -0.138959
    149 C50        -3.7980    2.4170   -3.0270 c3        1 MOL     -0.057757
    150 C51        -5.0760    2.4620   -3.8680 c         1 MOL      0.481009
    151 O21        -5.1740    3.2070   -4.8630 o         1 MOL     -0.551596
    152 C52        -3.1770    1.0250   -3.2180 c3        1 MOL     -0.106995
    153 C53        -1.8980    0.6390   -2.5090 c3        1 MOL     -0.020895
    154 C54        -2.0910    0.2370   -1.0070 c         1 MOL      0.706063
    155 O22        -1.0730    0.0840   -0.2980 o         1 MOL     -0.784947
    156 O23        -3.1830   -0.0310   -0.5000 o         1 MOL     -0.784947
    157 H67        -3.7120    1.9770   -0.8790 hn        1 MOL      0.204566
    158 H68        -3.0690    3.1800   -3.3240 h1        1 MOL      0.083292
    159 H69        -2.9780    0.9660   -4.2860 hc        1 MOL      0.028063
    160 H70        -3.9170    0.2400   -3.0500 hc        1 MOL      0.028063
    161 H71        -1.1540    1.4360   -2.5560 hc        1 MOL      0.039471
    162 H72        -1.3200   -0.1950   -2.9160 hc        1 MOL      0.039471
    163 N14        -6.1370    1.7820   -3.4150 n         1 MOL     -0.148403
    164 C55        -7.3780    1.6640   -4.2000 c3        1 MOL     -0.263162
    165 H73        -8.0820    1.0210   -3.6720 h1        1 MOL      0.102677
    166 H74        -7.8190    2.6520   -4.3340 h1        1 MOL      0.102677
    167 H75        -7.1520    1.2300   -5.1750 h1        1 MOL      0.102677
    168 H76        -6.0590    1.4260   -2.4710 hn        1 MOL      0.195199
    169 Ca1         1.1470   -0.5790    1.0750 Ca        1 MOL      1.786029
    170 O24         2.8670   -2.1490    2.4540 oh        1 MOL     -0.855047
    171 H77         3.5810   -1.9750    3.0580 ho        1 MOL      0.406921
    172 H78         2.3650   -2.8370    2.8780 ho        1 MOL      0.406921
    173 O25         1.3650    1.9650    0.3670 oh        1 MOL     -0.855047
    174 H79         0.6730    2.4950   -0.0090 ho        1 MOL      0.406921
    175 H80         2.1570    2.5010    0.2620 ho        1 MOL      0.406921
    176 O26         2.8190   -0.2940   -1.0030 oh        1 MOL     -0.855047
    177 H81         2.9890    0.4450   -1.5730 ho        1 MOL      0.406921
    178 H82         3.6010   -0.8410   -1.0780 ho        1 MOL      0.406921
    179 O27        -1.2400    1.0200    2.1340 oh        1 MOL     -0.855047
    180 H83        -1.4970    0.7690    1.2530 ho        1 MOL      0.406921
    181 H84        -1.1610    1.9750    2.0960 ho        1 MOL      0.406921
@<TRIPOS>BOND
     1    1    2 1   
     2    1    4 1   
     3    1    5 1   
     4    1    6 1   
     5    2    3 2   
     6    2    7 1   
     7    7    8 1   
     8    7   15 1   
     9    8    9 1   
    10    8   11 1   
    11    8   16 1   
    12    9   10 2   
    13    9   19 1   
    14   11   12 1   
    15   11   17 1   
    16   11   18 1   
    17   12   13 1   
    18   12   14 1   
    19   19   20 1   
    20   19   24 1   
    21   20   21 1   
    22   20   23 1   
    23   20   25 1   
    24   21   22 2   
    25   21   29 1   
    26   23   26 1   
    27   23   27 1   
    28   23   28 1   
    29   29   30 1   
    30   29   37 1   
    31   30   31 1   
    32   30   33 1   
    33   30   38 1   
    34   31   32 2   
    35   31   41 1   
    36   33   34 1   
    37   33   39 1   
    38   33   40 1   
    39   34   35 1   
    40   34   36 1   
    41   41   42 1   
    42   41   45 1   
    43   42   43 1   
    44   42   46 1   
    45   42   47 1   
    46   43   44 2   
    47   43   48 1   
    48   48   49 1   
    49   48   56 1   
    50   49   50 1   
    51   49   52 1   
    52   49   57 1   
    53   50   51 2   
    54   50   62 1   
    55   52   53 1   
    56   52   58 1   
    57   52   59 1   
    58   53   54 1   
    59   53   55 2   
    60   54   60 1   
    61   54   61 1   
    62   62   63 1   
    63   62   66 1   
    64   63   64 1   
    65   63   67 1   
    66   63   68 1   
    67   64   65 2   
    68   64   69 1   
    69   69   70 1   
    70   69   76 1   
    71   70   71 1   
    72   70   73 1   
    73   70   77 1   
    74   71   72 2   
    75   71   83 1   
    76   73   74 1   
    77   73   75 1   
    78   73   78 1   
    79   74   80 1   
    80   74   81 1   
    81   74   82 1   
    82   75   79 1   
    83   83   84 1   
    84   83   91 1   
    85   84   85 1   
    86   84   87 1   
    87   84   92 1   
    88   85   86 2   
    89   85  102 1   
    90   87   88 1   
    91   87   89 1   
    92   87   93 1   
    93   88   90 1   
    94   88   94 1   
    95   88   95 1   
    96   89   96 1   
    97   89   97 1   
    98   89   98 1   
    99   90   99 1   
   100   90  100 1   
   101   90  101 1   
   102  102  103 1   
   103  102  110 1   
   104  103  104 1   
   105  103  106 1   
   106  103  111 1   
   107  104  105 2   
   108  104  114 1   
   109  106  107 1   
   110  106  112 1   
   111  106  113 1   
   112  107  108 1   
   113  107  109 1   
   114  114  115 1   
   115  114  125 1   
   116  115  116 1   
   117  115  118 1   
   118  115  126 1   
   119  116  117 2   
   120  116  134 1   
   121  118  119 1   
   122  118  127 1   
   123  118  128 1   
   124  119  120 ar  
   125  119  121 ar  
   126  120  122 ar  
   127  120  129 1   
   128  121  123 ar  
   129  121  130 1   
   130  122  124 ar  
   131  122  131 1   
   132  123  124 ar  
   133  123  132 1   
   134  124  133 1   
   135  134  135 1   
   136  134  140 1   
   137  135  136 1   
   138  135  138 1   
   139  135  141 1   
   140  136  137 2   
   141  136  148 1   
   142  138  139 1   
   143  138  142 1   
   144  138  143 1   
   145  139  140 1   
   146  139  144 1   
   147  139  145 1   
   148  140  146 1   
   149  140  147 1   
   150  148  149 1   
   151  148  157 1   
   152  149  150 1   
   153  149  152 1   
   154  149  158 1   
   155  150  151 2   
   156  150  163 1   
   157  152  153 1   
   158  152  159 1   
   159  152  160 1   
   160  153  154 1   
   161  153  161 1   
   162  153  162 1   
   163  154  155 1   
   164  154  156 1   
   165  163  164 1   
   166  163  168 1   
   167  164  165 1   
   168  164  166 1   
   169  164  167 1   
   170  170  171 1   
   171  170  172 1   
   172  173  174 1   
   173  173  175 1   
   174  176  177 1   
   175  176  178 1   
   176  179  180 1   
   177  179  181 1   
@<TRIPOS>SUBSTRUCTURE
     1 MOL         1 TEMP              0 ****  ****    0 ROOT
