@<TRIPOS>MOLECULE
MOL
  192   187     1     0     0
SMALL
resp


@<TRIPOS>ATOM
      1 C1         -9.4270    1.0300   -2.2060 c3        1 MOL     -0.418684
      2 C2         -8.3840    1.0190   -1.0440 c         1 MOL      0.696157
      3 O1         -7.6690    1.9510   -0.8430 o         1 MOL     -0.627569
      4 H1         -9.9130    0.0560   -2.2680 hc        1 MOL      0.102211
      5 H2        -10.1770    1.7970   -2.0150 hc        1 MOL      0.102211
      6 H3         -8.9210    1.2430   -3.1480 hc        1 MOL      0.102211
      7 N1         -8.3220    0.0170   -0.2320 n         1 MOL     -0.385940
      8 C3         -7.6630   -0.1050    1.0970 c3        1 MOL     -0.019958
      9 C4         -6.8050   -1.4520    1.2770 c         1 MOL      0.400464
     10 O2         -6.4840   -1.7840    2.4390 o         1 MOL     -0.407641
     11 C5         -8.8740   -0.1360    2.0620 c3        1 MOL     -0.252303
     12 C6         -9.7600   -1.3810    1.8510 c         1 MOL      0.694134
     13 O3         -9.9390   -1.9360    0.7670 o         1 MOL     -0.651773
     14 O4        -10.3350   -1.8910    2.8690 o         1 MOL     -0.651773
     15 H4         -9.0410   -0.6740   -0.3700 hn        1 MOL      0.182702
     16 H5         -7.1180    0.8180    1.2980 h1        1 MOL      0.134949
     17 H6         -9.5150    0.7220    1.8670 hc        1 MOL      0.090385
     18 H7         -8.4930   -0.1250    3.0840 hc        1 MOL      0.090385
     19 N2         -6.6390   -2.2010    0.1800 n         1 MOL     -0.177150
     20 C7         -6.1880   -3.6250    0.2220 c3        1 MOL      0.023353
     21 C8         -4.7640   -3.8380    0.8370 c         1 MOL      0.385230
     22 O5         -4.5650   -4.6990    1.7010 o         1 MOL     -0.493792
     23 C9         -6.2680   -4.3480   -1.1140 c3        1 MOL     -0.119632
     24 C10        -7.7800   -4.5390   -1.5410 c3        1 MOL      0.191981
     25 C11        -7.8650   -4.7900   -3.0630 c3        1 MOL     -0.306785
     26 C12        -9.3760   -4.8570   -3.4850 c3        1 MOL      0.170738
     27 N3         -9.5520   -5.1260   -4.9910 n4        1 MOL     -0.294175
     28 H8         -6.9020   -1.7970   -0.7060 hn        1 MOL      0.138887
     29 H9         -6.8720   -4.1900    0.8550 h1        1 MOL      0.095151
     30 H10        -5.8850   -5.3630   -1.0000 hc        1 MOL      0.049421
     31 H11        -5.6430   -3.8420   -1.8430 hc        1 MOL      0.049421
     32 H12        -8.2540   -3.5710   -1.3680 hc        1 MOL      0.013106
     33 H13        -8.3230   -5.2180   -0.8950 hc        1 MOL      0.013106
     34 H14        -7.4410   -5.7670   -3.2790 hc        1 MOL      0.081748
     35 H15        -7.3910   -4.0060   -3.6470 hc        1 MOL      0.081748
     36 H16        -9.7760   -3.8900   -3.1690 hx        1 MOL      0.053431
     37 H17        -9.9700   -5.5630   -2.9100 hx        1 MOL      0.053431
     38 H18        -9.0650   -5.9920   -5.2030 hn        1 MOL      0.273411
     39 H19       -10.4470   -5.3810   -5.3650 hn        1 MOL      0.273411
     40 H20        -9.1140   -4.4380   -5.5880 hn        1 MOL      0.273411
     41 N4         -3.6900   -3.1000    0.4550 n         1 MOL     -0.364294
     42 C13        -3.6090   -1.8450   -0.2990 c3        1 MOL      0.017986
     43 C14        -3.7090   -0.5420    0.5900 c         1 MOL      0.333436
     44 O6         -3.5350   -0.5640    1.7770 o         1 MOL     -0.408809
     45 C15        -2.4480   -1.8520   -1.2760 c3        1 MOL     -0.106930
     46 C16        -1.1180   -2.0240   -0.5060 c         1 MOL      0.605999
     47 O7         -0.9890   -1.4010    0.5600 o         1 MOL     -0.590208
     48 O8         -0.1760   -2.7000   -0.9060 o         1 MOL     -0.590208
     49 H21        -2.8250   -3.4760    0.8290 hn        1 MOL      0.317707
     50 H22        -4.4830   -1.8490   -0.9530 h1        1 MOL      0.035701
     51 H23        -2.5460   -0.9330   -1.8580 hc        1 MOL      0.034917
     52 H24        -2.5580   -2.7380   -1.8990 hc        1 MOL      0.034917
     53 N5         -4.0000    0.5630   -0.0520 n         1 MOL     -0.319974
     54 C17        -4.2380    1.9030    0.4720 c3        1 MOL     -0.247292
     55 C18        -2.9980    2.5510    0.9940 c         1 MOL      1.000940
     56 O9         -1.9110    1.9080    0.9580 o         1 MOL     -0.834934
     57 H25        -4.2390    0.4740   -1.0230 hn        1 MOL      0.270365
     58 H26        -4.8940    1.7590    1.3340 h1        1 MOL      0.101905
     59 H27        -4.6900    2.4920   -0.3290 h1        1 MOL      0.101905
     60 N6         -3.0470    3.8290    1.4370 n         1 MOL     -0.676036
     61 C19        -2.0070    4.8440    1.6440 c3        1 MOL      0.315444
     62 C20        -2.3360    6.2650    1.1340 c         1 MOL      0.466216
     63 O10        -3.5280    6.5430    0.9650 o         1 MOL     -0.549822
     64 C21        -1.7160    4.7810    3.2030 c3        1 MOL     -0.342577
     65 C22        -1.1920    3.3910    3.6120 c         1 MOL      0.613283
     66 O11        -0.2070    2.9450    2.9270 o         1 MOL     -0.628701
     67 O12        -1.8130    2.7850    4.4960 o         1 MOL     -0.628701
     68 H28        -3.9300    4.2350    1.7230 hn        1 MOL      0.318207
     69 H29        -1.1020    4.5220    1.1290 h1        1 MOL      0.063463
     70 H30        -2.6270    4.9720    3.7670 hc        1 MOL      0.086023
     71 H31        -1.1060    5.6480    3.4600 hc        1 MOL      0.086023
     72 N7         -1.4370    7.2160    1.0730 n         1 MOL     -0.446293
     73 C23         0.0210    7.1090    1.3570 c3        1 MOL      0.004716
     74 C24         0.8540    6.4320    0.3160 c         1 MOL      0.642980
     75 O13         0.5800    6.5340   -0.8880 o         1 MOL     -0.553050
     76 H32        -1.7660    8.1460    0.8620 hn        1 MOL      0.325331
     77 H33         0.1430    6.5190    2.2710 h1        1 MOL      0.043755
     78 H34         0.4510    8.1010    1.5020 h1        1 MOL      0.043755
     79 N8          1.8810    5.6910    0.6980 n         1 MOL     -0.609921
     80 C25         2.6910    4.7960   -0.1410 c3        1 MOL     -0.057296
     81 C26         1.7630    3.6770   -0.6130 c         1 MOL      0.707771
     82 O14         1.1200    3.0060    0.2260 o         1 MOL     -0.690969
     83 C27         3.9960    4.3390    0.5420 c3        1 MOL      0.393403
     84 C28         5.0400    3.6870   -0.2870 c3        1 MOL     -0.461331
     85 O15         3.6970    3.5380    1.5590 oh        1 MOL     -0.626707
     86 H35         2.1270    5.8090    1.6780 hn        1 MOL      0.312536
     87 H36         3.0010    5.3780   -1.0140 h1        1 MOL      0.073450
     88 H37         4.3890    5.2920    0.8770 h1        1 MOL      0.012394
     89 H38         3.2580    3.9920    2.2920 ho        1 MOL      0.415420
     90 H39         5.8710    3.4530    0.3640 hc        1 MOL      0.127789
     91 H40         4.6300    2.7660   -0.7180 hc        1 MOL      0.127789
     92 H41         5.4670    4.3820   -1.0180 hc        1 MOL      0.127789
     93 N9          1.5570    3.5810   -1.9160 n         1 MOL     -0.424885
     94 C29         0.7720    2.5250   -2.6250 c3        1 MOL      0.001737
     95 C30         1.1350    1.1030   -2.1570 c         1 MOL      0.252570
     96 O16         0.7530    0.6580   -1.0980 o         1 MOL     -0.518551
     97 C31        -0.7820    2.6710   -2.5500 c3        1 MOL      0.109465
     98 C32        -1.3540    4.0740   -2.8770 c3        1 MOL     -0.052305
     99 C33        -1.4520    1.6360   -3.4210 c3        1 MOL     -0.379042
    100 C34        -2.8360    4.3270   -2.5070 c3        1 MOL     -0.151806
    101 H42         2.2230    4.1090   -2.4630 hn        1 MOL      0.256667
    102 H43         1.1330    2.5170   -3.6550 h1        1 MOL      0.053763
    103 H44        -1.1870    2.4610   -1.5600 hc        1 MOL      0.168971
    104 H45        -1.1830    4.3810   -3.9110 hc        1 MOL      0.017950
    105 H46        -0.7770    4.7630   -2.2650 hc        1 MOL      0.017950
    106 H47        -1.2410    0.6120   -3.1220 hc        1 MOL      0.085408
    107 H48        -2.5120    1.8150   -3.6420 hc        1 MOL      0.085408
    108 H49        -0.9980    1.7340   -4.4180 hc        1 MOL      0.085408
    109 H50        -3.4700    3.6790   -3.1270 hc        1 MOL      0.047729
    110 H51        -3.0620    4.1770   -1.4640 hc        1 MOL      0.047729
    111 H52        -3.0260    5.3540   -2.8300 hc        1 MOL      0.047729
    112 N10         1.9190    0.4760   -2.9400 n         1 MOL     -0.056880
    113 C35         2.3800   -0.9060   -2.7690 c3        1 MOL     -0.229879
    114 C36         3.8440   -1.0790   -3.0360 c         1 MOL      0.489326
    115 O17         4.2570   -2.2550   -3.1040 o         1 MOL     -0.539673
    116 C37         1.5640   -1.9630   -3.5750 c3        1 MOL      0.485166
    117 C38         1.7140   -1.8550   -5.0880 c3        1 MOL     -0.201586
    118 O18         0.2060   -1.8910   -3.2960 oh        1 MOL     -0.594799
    119 H53         2.1580    0.9530   -3.7890 hn        1 MOL      0.222883
    120 H54         2.3100   -1.0950   -1.7030 h1        1 MOL      0.136329
    121 H55         1.9980   -2.9410   -3.3860 h1        1 MOL      0.017584
    122 H56         0.1220   -2.3790   -2.4730 ho        1 MOL      0.286295
    123 H57         1.5280   -2.7990   -5.5870 hc        1 MOL      0.029641
    124 H58         1.1960   -0.9740   -5.4690 hc        1 MOL      0.029641
    125 H59         2.7490   -1.5720   -5.2550 hc        1 MOL      0.029641
    126 N11         4.6190    0.0020   -3.2230 n         1 MOL     -0.358844
    127 C39         6.1320   -0.1160   -3.2640 c3        1 MOL      0.092700
    128 C40         6.7250   -0.5090   -1.9820 c         1 MOL      0.551659
    129 O19         7.2570    0.2320   -1.2170 o         1 MOL     -0.522267
    130 C41         6.7580    1.1640   -3.7570 c3        1 MOL      0.336130
    131 C42         8.2380    0.9790   -4.1860 c3        1 MOL     -0.541239
    132 O20         6.0550    1.5470   -4.8960 oh        1 MOL     -0.622053
    133 H60         4.2150    0.9200   -3.3490 hn        1 MOL      0.216574
    134 H61         6.3450   -0.9340   -3.9380 h1        1 MOL      0.080432
    135 H62         6.5720    1.9980   -3.0920 h1        1 MOL      0.010942
    136 H63         6.4540    2.3890   -5.1360 ho        1 MOL      0.394977
    137 H64         8.4220    0.1670   -4.8880 hc        1 MOL      0.145854
    138 H65         8.5670    1.9190   -4.6370 hc        1 MOL      0.145854
    139 H66         8.9330    0.9430   -3.3540 hc        1 MOL      0.145854
    140 N12         6.6720   -1.8540   -1.7190 n         1 MOL     -0.784629
    141 C43         6.5190   -2.4560   -0.3080 c3        1 MOL      0.353541
    142 C44         5.2600   -2.0100    0.4250 c         1 MOL      0.395917
    143 O21         4.7090   -0.9520    0.1380 o         1 MOL     -0.425571
    144 C45         7.7390   -2.2800    0.5810 c3        1 MOL     -0.414108
    145 C46         9.0690   -2.7510   -0.1520 c3        1 MOL     -0.147919
    146 C47        10.2760   -2.8090    0.7840 c3        1 MOL     -0.035876
    147 C48        11.4960   -2.7190   -0.1410 c3        1 MOL      0.097097
    148 N13        12.8240   -2.7740    0.5830 n4        1 MOL     -0.160943
    149 H67         6.3250   -2.4140   -2.4840 hn        1 MOL      0.357430
    150 H68         6.4540   -3.5210   -0.5370 h1        1 MOL      0.041332
    151 H69         7.6280   -2.8660    1.4950 hc        1 MOL      0.178502
    152 H70         7.8900   -1.2440    0.8570 hc        1 MOL      0.178502
    153 H71         9.2770   -1.9700   -0.8850 hc        1 MOL      0.116293
    154 H72         8.9410   -3.7170   -0.6330 hc        1 MOL      0.116293
    155 H73        10.3290   -3.7880    1.2510 hc        1 MOL      0.041025
    156 H74        10.3040   -1.9640    1.4830 hc        1 MOL      0.041025
    157 H75        11.4030   -1.8240   -0.7440 hx        1 MOL      0.038350
    158 H76        11.4550   -3.6060   -0.7650 hx        1 MOL      0.038350
    159 H77        13.6350   -2.7140   -0.0150 hn        1 MOL      0.219334
    160 H78        12.8740   -2.0770    1.3190 hn        1 MOL      0.219334
    161 H79        12.8500   -3.6610    1.0710 hn        1 MOL      0.219334
    162 N14         4.8180   -2.8310    1.4190 n         1 MOL     -0.462895
    163 C49         3.7700   -2.3580    2.3810 c3        1 MOL      0.121572
    164 C50         2.3930   -2.3360    1.6970 c         1 MOL      0.347325
    165 O22         1.5840   -1.5140    2.0560 o         1 MOL     -0.585133
    166 C51         3.7730   -3.2960    3.5890 c3        1 MOL      0.243602
    167 C52         5.1290   -3.3870    4.2750 c3        1 MOL     -0.180629
    168 C53         5.1330   -4.2770    5.5590 c         1 MOL      0.689860
    169 O23         4.9690   -5.4720    5.3400 o         1 MOL     -0.649043
    170 O24         5.3220   -3.7850    6.7120 o         1 MOL     -0.649043
    171 H80         5.3250   -3.6710    1.6680 hn        1 MOL      0.308238
    172 H81         3.9520   -1.3390    2.7280 h1        1 MOL      0.028987
    173 H82         3.5360   -4.3190    3.2910 hc        1 MOL     -0.016530
    174 H83         3.0080   -3.0080    4.3010 hc        1 MOL     -0.016530
    175 H84         5.4570   -2.3930    4.5790 hc        1 MOL     -0.044832
    176 H85         5.8450   -3.8650    3.5940 hc        1 MOL     -0.044832
    177 N15         1.9910   -3.1980    0.7550 n         1 MOL     -0.145272
    178 C54         2.4450   -4.5300    0.3940 c3        1 MOL     -0.087921
    179 H86         2.0780   -4.7810   -0.6020 h1        1 MOL      0.037581
    180 H87         3.5350   -4.5560    0.3950 h1        1 MOL      0.037581
    181 H88         2.0630   -5.2530    1.1140 h1        1 MOL      0.037581
    182 H89         1.1630   -2.9860    0.2060 hn        1 MOL      0.227191
    183 Ca1         0.3990    0.7740    1.4660 Ca        1 MOL      1.846421
    184 O25         1.6920    0.8530    3.7380 oh        1 MOL     -0.874235
    185 H90         2.6420    0.7640    3.8260 ho        1 MOL      0.420962
    186 H91         1.3470    0.5510    4.5850 ho        1 MOL      0.420962
    187 O26         3.0320    0.9690    0.7360 oh        1 MOL     -0.874235
    188 H92         3.4570    1.8000    0.9600 ho        1 MOL      0.420962
    189 H93         3.7550    0.3600    0.5900 ho        1 MOL      0.420962
    190 O27        -1.5120   -0.0900    3.3110 oh        1 MOL     -0.874235
    191 H94        -2.2280   -0.4030    2.7700 ho        1 MOL      0.420962
    192 H95        -1.8530    0.7130    3.7110 ho        1 MOL      0.420962
@<TRIPOS>BOND
     1    1    2 1   
     2    1    4 1   
     3    1    5 1   
     4    1    6 1   
     5    2    3 2   
     6    2    7 1   
     7    7    8 1   
     8    7   15 1   
     9    8    9 1   
    10    8   11 1   
    11    8   16 1   
    12    9   10 2   
    13    9   19 1   
    14   11   12 1   
    15   11   17 1   
    16   11   18 1   
    17   12   13 1   
    18   12   14 1   
    19   19   20 1   
    20   19   28 1   
    21   20   21 1   
    22   20   23 1   
    23   20   29 1   
    24   21   22 2   
    25   21   41 1   
    26   23   24 1   
    27   23   30 1   
    28   23   31 1   
    29   24   25 1   
    30   24   32 1   
    31   24   33 1   
    32   25   26 1   
    33   25   34 1   
    34   25   35 1   
    35   26   27 1   
    36   26   36 1   
    37   26   37 1   
    38   27   38 1   
    39   27   39 1   
    40   27   40 1   
    41   41   42 1   
    42   41   49 1   
    43   42   43 1   
    44   42   45 1   
    45   42   50 1   
    46   43   44 2   
    47   43   53 1   
    48   45   46 1   
    49   45   51 1   
    50   45   52 1   
    51   46   47 1   
    52   46   48 1   
    53   53   54 1   
    54   53   57 1   
    55   54   55 1   
    56   54   58 1   
    57   54   59 1   
    58   55   56 2   
    59   55   60 1   
    60   60   61 1   
    61   60   68 1   
    62   61   62 1   
    63   61   64 1   
    64   61   69 1   
    65   62   63 2   
    66   62   72 1   
    67   64   65 1   
    68   64   70 1   
    69   64   71 1   
    70   65   66 1   
    71   65   67 1   
    72   72   73 1   
    73   72   76 1   
    74   73   74 1   
    75   73   77 1   
    76   73   78 1   
    77   74   75 2   
    78   74   79 1   
    79   79   80 1   
    80   79   86 1   
    81   80   81 1   
    82   80   83 1   
    83   80   87 1   
    84   81   82 2   
    85   81   93 1   
    86   83   84 1   
    87   83   85 1   
    88   83   88 1   
    89   84   90 1   
    90   84   91 1   
    91   84   92 1   
    92   85   89 1   
    93   93   94 1   
    94   93  101 1   
    95   94   95 1   
    96   94   97 1   
    97   94  102 1   
    98   95   96 2   
    99   95  112 1   
   100   97   98 1   
   101   97   99 1   
   102   97  103 1   
   103   98  100 1   
   104   98  104 1   
   105   98  105 1   
   106   99  106 1   
   107   99  107 1   
   108   99  108 1   
   109  100  109 1   
   110  100  110 1   
   111  100  111 1   
   112  112  113 1   
   113  112  119 1   
   114  113  114 1   
   115  113  116 1   
   116  113  120 1   
   117  114  115 2   
   118  114  126 1   
   119  116  117 1   
   120  116  118 1   
   121  116  121 1   
   122  117  123 1   
   123  117  124 1   
   124  117  125 1   
   125  118  122 1   
   126  126  127 1   
   127  126  133 1   
   128  127  128 1   
   129  127  130 1   
   130  127  134 1   
   131  128  129 2   
   132  128  140 1   
   133  130  131 1   
   134  130  132 1   
   135  130  135 1   
   136  131  137 1   
   137  131  138 1   
   138  131  139 1   
   139  132  136 1   
   140  140  141 1   
   141  140  149 1   
   142  141  142 1   
   143  141  144 1   
   144  141  150 1   
   145  142  143 2   
   146  142  162 1   
   147  144  145 1   
   148  144  151 1   
   149  144  152 1   
   150  145  146 1   
   151  145  153 1   
   152  145  154 1   
   153  146  147 1   
   154  146  155 1   
   155  146  156 1   
   156  147  148 1   
   157  147  157 1   
   158  147  158 1   
   159  148  159 1   
   160  148  160 1   
   161  148  161 1   
   162  162  163 1   
   163  162  171 1   
   164  163  164 1   
   165  163  166 1   
   166  163  172 1   
   167  164  165 2   
   168  164  177 1   
   169  166  167 1   
   170  166  173 1   
   171  166  174 1   
   172  167  168 1   
   173  167  175 1   
   174  167  176 1   
   175  168  169 1   
   176  168  170 1   
   177  177  178 1   
   178  177  182 1   
   179  178  179 1   
   180  178  180 1   
   181  178  181 1   
   182  184  185 1   
   183  184  186 1   
   184  187  188 1   
   185  187  189 1   
   186  190  191 1   
   187  190  192 1   
@<TRIPOS>SUBSTRUCTURE
     1 MOL         1 TEMP              0 ****  ****    0 ROOT
