@<TRIPOS>MOLECULE
MOL
  179   176     1     0     0
SMALL
resp


@<TRIPOS>ATOM
      1 C1         -0.0450    5.1720    5.0670 c3        1 MOL     -0.471265
      2 C2         -0.3400    4.6540    3.6140 c         1 MOL      0.787687
      3 O1          0.5800    4.4180    2.8160 o         1 MOL     -0.655524
      4 H1         -0.9760    5.2090    5.6340 hc        1 MOL      0.134453
      5 H2          0.6540    4.4970    5.5600 hc        1 MOL      0.134453
      6 H3          0.3880    6.1710    5.0160 hc        1 MOL      0.134453
      7 N1         -1.6340    4.3320    3.2940 n         1 MOL     -0.673033
      8 C3         -2.0230    3.6620    2.0380 c3        1 MOL      0.066715
      9 C4         -2.2910    4.6750    0.9060 c         1 MOL      0.624531
     10 O2         -3.1630    5.5550    1.0440 o         1 MOL     -0.548288
     11 C5         -3.3130    2.8260    2.3600 c3        1 MOL      0.093666
     12 C6         -3.5460    1.7610    1.3390 c         1 MOL      0.512473
     13 O3         -4.2820    0.8250    1.6440 o         1 MOL     -0.649593
     14 O4         -3.0420    1.8070    0.1710 o         1 MOL     -0.649593
     15 H4         -2.3060    4.5770    3.9960 hn        1 MOL      0.340564
     16 H5         -1.2140    2.9890    1.7320 h1        1 MOL     -0.015800
     17 H6         -4.1950    3.4730    2.3650 hc        1 MOL      0.021966
     18 H7         -3.2040    2.3630    3.3440 hc        1 MOL      0.021966
     19 N2         -1.6080    4.5100   -0.2590 n         1 MOL     -0.499678
     20 C7         -1.7780    5.4320   -1.3820 c3        1 MOL      0.097920
     21 C8         -2.8600    5.1390   -2.3480 c         1 MOL      0.366121
     22 O5         -3.0820    5.9490   -3.2570 o         1 MOL     -0.542145
     23 C9         -0.3860    5.5910   -2.0720 c3        1 MOL     -0.043897
     24 C10         0.8110    5.6470   -1.2290 c3        1 MOL      0.153553
     25 C11         2.0930    5.8910   -2.1530 c3        1 MOL     -0.093298
     26 C12         3.1810    6.4420   -1.2510 c3        1 MOL      0.056165
     27 N3          4.4640    6.4120   -1.9670 n4        1 MOL     -0.238702
     28 H8         -1.2290    3.5980   -0.4520 hn        1 MOL      0.352530
     29 H9         -1.9820    6.4420   -1.0100 h1        1 MOL      0.092719
     30 H10        -0.4400    6.5110   -2.6670 hc        1 MOL      0.007298
     31 H11        -0.1990    4.7210   -2.7150 hc        1 MOL      0.007298
     32 H12         0.9240    4.6470   -0.8010 hc        1 MOL     -0.011892
     33 H13         0.6220    6.3280   -0.4020 hc        1 MOL     -0.011892
     34 H14         1.8470    6.6990   -2.8380 hc        1 MOL      0.042202
     35 H15         2.4040    4.9790   -2.6710 hc        1 MOL      0.042202
     36 H16         3.2220    5.6960   -0.4640 hx        1 MOL      0.072165
     37 H17         2.9180    7.4010   -0.8000 hx        1 MOL      0.072165
     38 H18         4.5500    5.5030   -2.4050 hn        1 MOL      0.246792
     39 H19         4.3890    7.0810   -2.7110 hn        1 MOL      0.246792
     40 H20         5.2680    6.6240   -1.4100 hn        1 MOL      0.246792
     41 N4         -3.4660    3.9940   -2.2440 n         1 MOL     -0.116079
     42 C13        -4.6530    3.5310   -3.0210 c3        1 MOL      0.008260
     43 C14        -5.8620    3.3160   -2.0750 c         1 MOL      0.443563
     44 O6         -7.0180    3.4850   -2.4530 o         1 MOL     -0.553402
     45 C15        -4.2920    2.3020   -3.8790 c3        1 MOL     -0.189878
     46 C16        -3.6850    1.0660   -3.1560 c         1 MOL      0.671293
     47 O7         -4.4240    0.2510   -2.6180 o         1 MOL     -0.674197
     48 O8         -2.4630    0.9640   -3.0360 o         1 MOL     -0.674197
     49 H21        -3.0000    3.3490   -1.6240 hn        1 MOL      0.084445
     50 H22        -4.9110    4.3850   -3.6530 h1        1 MOL      0.102753
     51 H23        -3.5960    2.7050   -4.6060 hc        1 MOL      0.063829
     52 H24        -5.1320    1.9170   -4.4600 hc        1 MOL      0.063829
     53 N5         -5.5730    2.8680   -0.8800 n         1 MOL      0.013408
     54 C17        -6.4950    2.7240    0.2050 c3        1 MOL     -0.460504
     55 C18        -7.0310    1.3040    0.3960 c         1 MOL      0.676123
     56 O9         -7.8020    1.1240    1.3400 o         1 MOL     -0.588270
     57 H25        -4.6640    2.4740   -0.7070 hn        1 MOL     -0.091406
     58 H26        -7.2500    3.4850   -0.0140 h1        1 MOL      0.190743
     59 H27        -6.0440    3.1750    1.0920 h1        1 MOL      0.190743
     60 N6         -6.7590    0.2970   -0.4380 n         1 MOL     -0.256003
     61 C19        -7.4450   -0.9530   -0.2980 c3        1 MOL     -0.093433
     62 C20        -6.4270   -1.8740    0.4180 c         1 MOL      0.535525
     63 O10        -5.2150   -1.7630    0.2620 o         1 MOL     -0.475779
     64 C21        -7.8350   -1.4910   -1.6930 c3        1 MOL     -0.201268
     65 C22        -8.3390   -2.8710   -1.5850 c         1 MOL      0.654054
     66 N7         -9.4990   -3.1110   -1.1270 n         1 MOL     -0.743860
     67 O11        -7.5500   -3.7840   -1.8750 o         1 MOL     -0.602739
     68 H28        -6.2430    0.4810   -1.2940 hn        1 MOL      0.217463
     69 H29        -8.4050   -0.8530    0.2070 h1        1 MOL      0.063982
     70 H30        -7.0370   -1.3450   -2.4250 hc        1 MOL      0.092108
     71 H31        -8.6630   -0.9170   -2.1230 hc        1 MOL      0.092108
     72 H32       -10.0900   -2.3360   -0.8820 hn        1 MOL      0.362412
     73 H33        -9.8240   -4.0480   -0.9190 hn        1 MOL      0.362412
     74 N8         -6.9670   -2.8620    1.1180 n         1 MOL     -0.273176
     75 C23        -6.2870   -4.0970    1.4500 c3        1 MOL     -0.110021
     76 C24        -4.9120   -4.0000    2.0800 c         1 MOL      0.446234
     77 O12        -4.8200   -3.4560    3.1600 o         1 MOL     -0.469267
     78 H34        -7.9640   -2.7680    1.2510 hn        1 MOL      0.245439
     79 H35        -6.2640   -4.7030    0.5390 h1        1 MOL      0.082365
     80 H36        -6.9230   -4.5160    2.2240 h1        1 MOL      0.082365
     81 N9         -3.9010   -4.5750    1.4270 n         1 MOL     -0.249959
     82 C25        -2.5400   -4.6350    1.9120 c3        1 MOL     -0.012785
     83 C26        -1.8720   -3.2850    1.8860 c         1 MOL      0.752817
     84 O13        -2.2320   -2.4700    1.0860 o         1 MOL     -0.590394
     85 C27        -1.7410   -5.7080    1.2120 c3        1 MOL     -0.187042
     86 C28        -1.7030   -5.7650   -0.2750 ca        1 MOL      0.033000
     87 C29        -2.6770   -6.4740   -0.9830 ca        1 MOL     -0.098082
     88 C30        -0.8120   -4.9380   -0.9880 ca        1 MOL     -0.098082
     89 C31        -2.7830   -6.3210   -2.3790 ca        1 MOL     -0.295064
     90 C32        -0.8390   -4.9580   -2.3970 ca        1 MOL     -0.295064
     91 C33        -1.8130   -5.6410   -3.1480 ca        1 MOL      0.357278
     92 O14        -1.8450   -5.5610   -4.4770 oh        1 MOL     -0.433072
     93 H37        -4.1020   -5.0940    0.5920 hn        1 MOL      0.191007
     94 H38        -2.5840   -4.8970    2.9690 h1        1 MOL      0.056123
     95 H39        -2.2660   -6.6430    1.4210 hc        1 MOL      0.078314
     96 H40        -0.7790   -5.7730    1.7090 hc        1 MOL      0.078314
     97 H41        -3.4080   -7.0910   -0.4860 ha        1 MOL      0.121624
     98 H42        -0.0850   -4.3430   -0.4580 ha        1 MOL      0.121624
     99 H43        -3.6740   -6.7440   -2.8310 ha        1 MOL      0.159194
    100 H44        -0.1220   -4.3750   -2.9400 ha        1 MOL      0.159194
    101 H45        -2.6680   -5.9920   -4.7300 ho        1 MOL      0.356557
    102 N10        -0.8820   -2.9250    2.7710 n         1 MOL     -0.737902
    103 C34        -0.2960   -1.6060    3.0570 c3        1 MOL     -0.000302
    104 C35         0.0600   -0.7610    1.8520 c         1 MOL      0.596177
    105 O15        -0.7820   -0.2350    1.1280 o         1 MOL     -0.551683
    106 C36        -1.2070   -0.6540    3.9670 c3        1 MOL      0.355812
    107 C37        -0.5410    0.6020    4.5560 c3        1 MOL     -0.192564
    108 C38        -1.8440   -1.5320    5.0820 c3        1 MOL     -0.364618
    109 C39         0.5640    0.3460    5.6130 c3        1 MOL     -0.323685
    110 H46        -0.6140   -3.6890    3.3750 hn        1 MOL      0.353216
    111 H47         0.6650   -1.8150    3.5290 h1        1 MOL      0.103999
    112 H48        -2.0000   -0.1920    3.3780 hc        1 MOL     -0.013860
    113 H49        -1.2110    1.3050    5.0630 hc        1 MOL      0.097372
    114 H50        -0.2370    1.1310    3.6470 hc        1 MOL      0.097372
    115 H51        -2.5760   -2.2120    4.6300 hc        1 MOL      0.088832
    116 H52        -1.1160   -2.0530    5.6900 hc        1 MOL      0.088832
    117 H53        -2.4820   -0.8840    5.6760 hc        1 MOL      0.088832
    118 H54         0.0670   -0.0010    6.5130 hc        1 MOL      0.085981
    119 H55         1.2240   -0.4560    5.2900 hc        1 MOL      0.085981
    120 H56         1.1370    1.2590    5.8280 hc        1 MOL      0.085981
    121 N11         1.3720   -0.4850    1.6830 n         1 MOL     -0.425616
    122 C40         1.9180    0.4140    0.6120 c3        1 MOL     -0.171309
    123 C41         3.3090    0.2370    0.1430 c         1 MOL      0.662097
    124 O16         3.6470    1.0110   -0.7850 o         1 MOL     -0.576215
    125 C42         1.6520    1.8270    1.1270 c3        1 MOL      0.239627
    126 O17         2.4360    2.1140    2.2960 oh        1 MOL     -0.610241
    127 H57         2.0690   -0.9830    2.2160 hn        1 MOL      0.241564
    128 H58         1.2720    0.2490   -0.2460 h1        1 MOL      0.123208
    129 H59         0.5790    1.9330    1.2890 h1        1 MOL      0.007555
    130 H60         2.0130    2.5810    0.4210 h1        1 MOL      0.007555
    131 H61         2.2720    2.9800    2.6740 ho        1 MOL      0.412526
    132 N12         4.1060   -0.6560    0.6770 n         1 MOL     -0.680488
    133 C43         5.4270   -0.9130    0.1470 c3        1 MOL      0.356629
    134 C44         5.2750   -1.6690   -1.2180 c         1 MOL      0.583016
    135 O18         4.2030   -2.0660   -1.6870 o         1 MOL     -0.546896
    136 C45         6.1310   -1.6800    1.2270 c3        1 MOL     -0.479186
    137 H62         3.7800   -0.9720    1.5830 hn        1 MOL      0.376539
    138 H63         5.9080    0.0610    0.0100 h1        1 MOL      0.086936
    139 H64         5.9730   -1.1470    2.1660 hc        1 MOL      0.127651
    140 H65         5.8170   -2.7210    1.3440 hc        1 MOL      0.127651
    141 H66         7.2220   -1.6250    1.1780 hc        1 MOL      0.127651
    142 N13         6.3520   -1.9040   -1.9650 n         1 MOL     -0.625344
    143 C46         7.5780   -1.0990   -1.8550 c3        1 MOL      0.205754
    144 C47         8.7740   -1.9040   -2.4010 c         1 MOL      0.390008
    145 O19         8.6030   -2.6540   -3.3990 o         1 MOL     -0.510971
    146 C48         7.3250    0.1620   -2.7220 c3        1 MOL     -0.121725
    147 H67         6.1430   -2.1980   -2.9110 hn        1 MOL      0.365718
    148 H68         7.7070   -0.7210   -0.8390 h1        1 MOL     -0.051598
    149 H69         6.5200    0.7020   -2.2150 hc        1 MOL      0.046125
    150 H70         8.1330    0.8900   -2.7790 hc        1 MOL      0.046125
    151 H71         6.8720   -0.0080   -3.6930 hc        1 MOL      0.046125
    152 N14         9.9770   -1.7280   -1.8330 n         1 MOL     -0.384535
    153 C49        10.3160   -0.8610   -0.6250 c3        1 MOL     -0.009570
    154 C50         9.9320   -1.4950    0.6930 c         1 MOL      0.579075
    155 O20         9.6880   -0.6990    1.6430 o         1 MOL     -0.580348
    156 C51        11.8250   -0.6510   -0.6450 c3        1 MOL     -0.002740
    157 C52        12.3320    0.5250    0.1650 c3        1 MOL     -0.176029
    158 C53        13.8330    0.4770    0.0550 c         1 MOL      0.704725
    159 O21        14.4820    1.2070   -0.7050 o         1 MOL     -0.661919
    160 O22        14.4370   -0.2690    0.8700 o         1 MOL     -0.661919
    161 H72        10.6440   -2.4130   -2.1530 hn        1 MOL      0.267358
    162 H73         9.8800    0.1350   -0.6780 h1        1 MOL      0.107306
    163 H74        12.0510   -0.2790   -1.6510 hc        1 MOL      0.011017
    164 H75        12.3300   -1.5590   -0.3240 hc        1 MOL      0.011017
    165 H76        11.9870    0.3630    1.1830 hc        1 MOL      0.031299
    166 H77        11.9300    1.4910   -0.1550 hc        1 MOL      0.031299
    167 N15         9.7630   -2.7780    0.7300 n         1 MOL     -0.274621
    168 C54         9.2480   -3.4570    1.9080 c3        1 MOL     -0.209045
    169 H78         8.1700   -3.5820    1.8110 h1        1 MOL      0.105866
    170 H79         9.7210   -4.4350    2.0000 h1        1 MOL      0.105866
    171 H80         9.4660   -2.8630    2.7960 h1        1 MOL      0.105866
    172 H81         9.9380   -3.2630   -0.1320 hn        1 MOL      0.258039
    173 Ca1        -2.9170   -0.6210   -0.5530 Ca        1 MOL      1.723632
    174 O23        -3.3520   -2.8960   -1.7990 oh        1 MOL     -0.935702
    175 H82        -3.9220   -3.4830   -2.2970 ho        1 MOL      0.454250
    176 H83        -2.5330   -3.3760   -1.7130 ho        1 MOL      0.454250
    177 O24        -0.5990   -1.0020   -1.8030 oh        1 MOL     -0.935702
    178 H84        -0.1860   -0.3440   -2.3540 ho        1 MOL      0.454250
    179 H85         0.1110   -1.5760   -1.5400 ho        1 MOL      0.454250
@<TRIPOS>BOND
     1    1    2 1   
     2    1    4 1   
     3    1    5 1   
     4    1    6 1   
     5    2    3 2   
     6    2    7 1   
     7    7    8 1   
     8    7   15 1   
     9    8    9 1   
    10    8   11 1   
    11    8   16 1   
    12    9   10 2   
    13    9   19 1   
    14   11   12 1   
    15   11   17 1   
    16   11   18 1   
    17   12   13 1   
    18   12   14 1   
    19   19   20 1   
    20   19   28 1   
    21   20   21 1   
    22   20   23 1   
    23   20   29 1   
    24   21   22 2   
    25   21   41 1   
    26   23   24 1   
    27   23   30 1   
    28   23   31 1   
    29   24   25 1   
    30   24   32 1   
    31   24   33 1   
    32   25   26 1   
    33   25   34 1   
    34   25   35 1   
    35   26   27 1   
    36   26   36 1   
    37   26   37 1   
    38   27   38 1   
    39   27   39 1   
    40   27   40 1   
    41   41   42 1   
    42   41   49 1   
    43   42   43 1   
    44   42   45 1   
    45   42   50 1   
    46   43   44 2   
    47   43   53 1   
    48   45   46 1   
    49   45   51 1   
    50   45   52 1   
    51   46   47 1   
    52   46   48 1   
    53   53   54 1   
    54   53   57 1   
    55   54   55 1   
    56   54   58 1   
    57   54   59 1   
    58   55   56 2   
    59   55   60 1   
    60   60   61 1   
    61   60   68 1   
    62   61   62 1   
    63   61   64 1   
    64   61   69 1   
    65   62   63 2   
    66   62   74 1   
    67   64   65 1   
    68   64   70 1   
    69   64   71 1   
    70   65   66 1   
    71   65   67 2   
    72   66   72 1   
    73   66   73 1   
    74   74   75 1   
    75   74   78 1   
    76   75   76 1   
    77   75   79 1   
    78   75   80 1   
    79   76   77 2   
    80   76   81 1   
    81   81   82 1   
    82   81   93 1   
    83   82   83 1   
    84   82   85 1   
    85   82   94 1   
    86   83   84 2   
    87   83  102 1   
    88   85   86 1   
    89   85   95 1   
    90   85   96 1   
    91   86   87 ar  
    92   86   88 ar  
    93   87   89 ar  
    94   87   97 1   
    95   88   90 ar  
    96   88   98 1   
    97   89   91 ar  
    98   89   99 1   
    99   90   91 ar  
   100   90  100 1   
   101   91   92 1   
   102   92  101 1   
   103  102  103 1   
   104  102  110 1   
   105  103  104 1   
   106  103  106 1   
   107  103  111 1   
   108  104  105 2   
   109  104  121 1   
   110  106  107 1   
   111  106  108 1   
   112  106  112 1   
   113  107  109 1   
   114  107  113 1   
   115  107  114 1   
   116  108  115 1   
   117  108  116 1   
   118  108  117 1   
   119  109  118 1   
   120  109  119 1   
   121  109  120 1   
   122  121  122 1   
   123  121  127 1   
   124  122  123 1   
   125  122  125 1   
   126  122  128 1   
   127  123  124 2   
   128  123  132 1   
   129  125  126 1   
   130  125  129 1   
   131  125  130 1   
   132  126  131 1   
   133  132  133 1   
   134  132  137 1   
   135  133  134 1   
   136  133  136 1   
   137  133  138 1   
   138  134  135 2   
   139  134  142 1   
   140  136  139 1   
   141  136  140 1   
   142  136  141 1   
   143  142  143 1   
   144  142  147 1   
   145  143  144 1   
   146  143  146 1   
   147  143  148 1   
   148  144  145 2   
   149  144  152 1   
   150  146  149 1   
   151  146  150 1   
   152  146  151 1   
   153  152  153 1   
   154  152  161 1   
   155  153  154 1   
   156  153  156 1   
   157  153  162 1   
   158  154  155 2   
   159  154  167 1   
   160  156  157 1   
   161  156  163 1   
   162  156  164 1   
   163  157  158 1   
   164  157  165 1   
   165  157  166 1   
   166  158  159 1   
   167  158  160 1   
   168  167  168 1   
   169  167  172 1   
   170  168  169 1   
   171  168  170 1   
   172  168  171 1   
   173  174  175 1   
   174  174  176 1   
   175  177  178 1   
   176  177  179 1   
@<TRIPOS>SUBSTRUCTURE
     1 MOL         1 TEMP              0 ****  ****    0 ROOT
