@<TRIPOS>MOLECULE
MOL
  198   191     1     0     0
SMALL
resp


@<TRIPOS>ATOM
      1 C1         -3.0970    6.0490    1.5810 c3        1 MOL     -0.324426
      2 C2         -4.5920    5.9310    1.2340 c         1 MOL      0.612547
      3 O1         -5.0580    6.7510    0.4020 o         1 MOL     -0.575562
      4 H1         -2.9110    5.5800    2.5470 hc        1 MOL      0.080850
      5 H2         -2.5050    5.5500    0.8140 hc        1 MOL      0.080850
      6 H3         -2.8170    7.1010    1.6300 hc        1 MOL      0.080850
      7 N1         -5.2830    5.1570    2.0020 n         1 MOL     -0.531960
      8 C3         -6.7250    4.7740    1.8740 c3        1 MOL      0.203392
      9 C4         -6.9280    3.9110    0.5910 c         1 MOL      0.368563
     10 O2         -6.0970    3.7400   -0.2720 o         1 MOL     -0.477609
     11 C5         -7.5660    6.0200    2.0470 c3        1 MOL     -0.078831
     12 C6         -9.0380    5.8120    2.3310 c         1 MOL      0.704457
     13 O3         -9.4380    4.7050    2.6810 o         1 MOL     -0.718410
     14 O4         -9.6970    6.8430    2.2780 o         1 MOL     -0.718410
     15 H4         -4.8030    4.7590    2.8050 hn        1 MOL      0.305190
     16 H5         -7.0320    4.1200    2.6920 h1        1 MOL      0.006587
     17 H6         -7.5950    6.6750    1.1720 hc        1 MOL      0.022216
     18 H7         -7.1230    6.5630    2.8750 hc        1 MOL      0.022216
     19 N2         -8.0540    3.2230    0.5770 n         1 MOL     -0.255861
     20 C7         -8.5850    2.3660   -0.5360 c3        1 MOL      0.007864
     21 C8         -7.5880    1.2580   -0.9700 c         1 MOL      0.351971
     22 O5         -7.4680    1.0140   -2.1880 o         1 MOL     -0.497873
     23 C9         -8.8720    3.2810   -1.7410 c3        1 MOL     -0.092036
     24 C10        -9.9800    4.3280   -1.6130 c3        1 MOL      0.202074
     25 C11       -10.3630    4.7670   -3.0700 c3        1 MOL     -0.127288
     26 C12       -11.1920    6.0490   -3.1570 c3        1 MOL      0.172626
     27 N3        -11.0780    6.6960   -4.5150 n4        1 MOL     -0.346427
     28 H8         -8.6690    3.4300    1.3640 hn        1 MOL      0.185548
     29 H9         -9.5410    1.9580   -0.1940 h1        1 MOL      0.080497
     30 H10        -9.0760    2.7050   -2.6440 hc        1 MOL      0.053552
     31 H11        -7.9430    3.8030   -1.9760 hc        1 MOL      0.053552
     32 H12        -9.6820    5.1730   -0.9980 hc        1 MOL     -0.019426
     33 H13       -10.8580    3.8910   -1.1370 hc        1 MOL     -0.019426
     34 H14       -10.9150    4.0060   -3.6230 hc        1 MOL      0.022093
     35 H15        -9.4310    4.9860   -3.5940 hc        1 MOL      0.022093
     36 H16       -10.8690    6.7540   -2.3810 hx        1 MOL      0.045775
     37 H17       -12.2300    5.8090   -2.9580 hx        1 MOL      0.045775
     38 H18       -11.4420    6.0870   -5.2430 hn        1 MOL      0.315711
     39 H19       -11.6220    7.5470   -4.5790 hn        1 MOL      0.315711
     40 H20       -10.1500    6.9810   -4.8160 hn        1 MOL      0.315711
     41 N4         -6.9280    0.5840   -0.0560 n         1 MOL     -0.449064
     42 C13        -6.1890   -0.6800   -0.2660 c3        1 MOL      0.558672
     43 C14        -6.3600   -1.5720    1.0100 c         1 MOL      0.257327
     44 O6         -6.1970   -1.0280    2.1080 o         1 MOL     -0.528889
     45 C15        -4.7040   -0.2410   -0.5600 c3        1 MOL     -0.339089
     46 C16        -3.9770   -1.1670   -1.5340 c         1 MOL      0.679774
     47 O7         -4.1880   -2.4100   -1.5430 o         1 MOL     -0.645724
     48 O8         -3.1070   -0.6740   -2.2730 o         1 MOL     -0.645724
     49 H21        -7.0890    0.9670    0.8590 hn        1 MOL      0.241892
     50 H22        -6.6330   -1.1600   -1.1310 h1        1 MOL     -0.043122
     51 H23        -4.1400   -0.1650    0.3730 hc        1 MOL      0.107341
     52 H24        -4.7060    0.7400   -1.0290 hc        1 MOL      0.107341
     53 N5         -6.7390   -2.8340    0.9510 n         1 MOL     -0.312431
     54 C17        -6.7190   -3.7860   -0.1590 c3        1 MOL     -0.164075
     55 C18        -5.7970   -4.8910    0.1420 c         1 MOL      0.515657
     56 O9         -6.1690   -5.8590    0.8450 o         1 MOL     -0.587094
     57 H25        -7.0430   -3.1720    1.8500 hn        1 MOL      0.307777
     58 H26        -6.2930   -3.3370   -1.0530 h1        1 MOL      0.103214
     59 H27        -7.7190   -4.2180   -0.2620 h1        1 MOL      0.103214
     60 N6         -4.7220   -4.9370   -0.6120 n         1 MOL     -0.002866
     61 C19        -3.7530   -5.9880   -0.5170 c3        1 MOL     -0.136750
     62 C20        -2.3690   -5.3620   -0.2760 c         1 MOL      0.418510
     63 O10        -2.0590   -4.2870   -0.7700 o         1 MOL     -0.456541
     64 C21        -3.7760   -6.9330   -1.7500 c3        1 MOL     -0.122762
     65 C22        -3.7760   -6.2680   -3.1080 c         1 MOL      0.712565
     66 O11        -3.7270   -5.0090   -3.2010 o         1 MOL     -0.704315
     67 O12        -3.9570   -6.9370   -4.1270 o         1 MOL     -0.704315
     68 H28        -4.4950   -4.0570   -1.0440 hn        1 MOL     -0.001604
     69 H29        -3.8820   -6.4890    0.4400 h1        1 MOL      0.053800
     70 H30        -4.6670   -7.5570   -1.6550 hc        1 MOL      0.045972
     71 H31        -2.9010   -7.5940   -1.6690 hc        1 MOL      0.045972
     72 N7         -1.5210   -6.1180    0.3660 n         1 MOL     -0.297169
     73 C23        -0.1960   -5.6880    0.6840 c3        1 MOL      0.037470
     74 C24        -0.1540   -4.8440    1.9360 c         1 MOL      0.365752
     75 O13         0.5620   -5.2690    2.8920 o         1 MOL     -0.523506
     76 H32        -1.8630   -6.9690    0.7990 hn        1 MOL      0.288382
     77 H33         0.1620   -5.0530   -0.1400 h1        1 MOL      0.035732
     78 H34         0.5170   -6.5070    0.7250 h1        1 MOL      0.035732
     79 N8         -1.0010   -3.8110    1.9950 n         1 MOL     -0.055048
     80 C25        -1.1780   -2.9760    3.2010 c3        1 MOL     -0.027073
     81 C26        -0.9630   -1.5420    2.8890 c         1 MOL      0.602462
     82 O14        -1.7010   -1.0420    2.0160 o         1 MOL     -0.516111
     83 C27        -2.4260   -3.1740    3.9850 c3        1 MOL      0.222943
     84 C28        -3.7140   -3.2150    3.2150 c3        1 MOL     -0.117151
     85 O15        -2.4160   -4.4130    4.7370 oh        1 MOL     -0.603443
     86 H35        -1.3830   -3.4890    1.1210 hn        1 MOL      0.106198
     87 H36        -0.3700   -3.2040    3.8950 h1        1 MOL      0.048511
     88 H37        -2.3750   -2.3030    4.6460 h1        1 MOL     -0.003501
     89 H38        -2.9610   -4.2440    5.5130 ho        1 MOL      0.394419
     90 H39        -3.6710   -2.3510    2.5510 hc        1 MOL      0.038514
     91 H40        -3.7660   -4.1740    2.6940 hc        1 MOL      0.038514
     92 H41        -4.5390   -3.2250    3.9300 hc        1 MOL      0.038514
     93 N9          0.0670   -0.8190    3.4470 n         1 MOL     -0.411663
     94 C29         0.4740    0.5700    3.0710 c3        1 MOL     -0.137304
     95 C30         1.7720    0.5340    2.1870 c         1 MOL      0.553876
     96 O16         2.0550    1.4980    1.5380 o         1 MOL     -0.542022
     97 C31         0.5650    1.5050    4.3270 c3        1 MOL      0.180891
     98 C32         1.5510    1.0590    5.4790 c3        1 MOL     -0.000838
     99 C33        -0.8160    1.9040    4.8510 c3        1 MOL     -0.306805
    100 C34         2.1670    2.2810    6.1980 c3        1 MOL     -0.095369
    101 H42         0.5460   -1.2830    4.2040 hn        1 MOL      0.221567
    102 H43        -0.3020    1.0050    2.4430 h1        1 MOL      0.142292
    103 H44         0.9840    2.3970    3.8760 hc        1 MOL      0.019032
    104 H45         2.4540    0.6000    5.0570 hc        1 MOL      0.010625
    105 H46         1.1540    0.4360    6.2720 hc        1 MOL      0.010625
    106 H47        -1.2200    1.0000    5.3180 hc        1 MOL      0.078206
    107 H48        -0.6750    2.7430    5.5380 hc        1 MOL      0.078206
    108 H49        -1.4210    2.2030    3.9930 hc        1 MOL      0.078206
    109 H50         2.8950    1.9300    6.9270 hc        1 MOL      0.027548
    110 H51         2.6650    2.9310    5.4740 hc        1 MOL      0.027548
    111 H52         1.4470    2.9040    6.7370 hc        1 MOL      0.027548
    112 N10         2.3870   -0.6180    2.1000 n         1 MOL     -0.400919
    113 C35         3.5240   -0.8830    1.1710 c3        1 MOL      0.047162
    114 C36         4.6520   -1.5150    1.9430 c         1 MOL      0.686570
    115 O17         4.4850   -2.0620    2.9900 o         1 MOL     -0.549810
    116 C37         3.0350   -1.6680   -0.1250 c3        1 MOL      0.259134
    117 C38         2.1270   -2.8670    0.2080 c3        1 MOL     -0.598797
    118 O18         2.1680   -0.8560   -0.8720 oh        1 MOL     -0.473064
    119 H53         2.0420   -1.4410    2.5660 hn        1 MOL      0.245468
    120 H54         4.0660    0.0200    0.8750 h1        1 MOL      0.049700
    121 H55         3.8000   -2.0000   -0.8240 h1        1 MOL      0.012860
    122 H56         2.7300   -0.1080   -1.0690 ho        1 MOL      0.331310
    123 H57         1.1500   -2.5880    0.6080 hc        1 MOL      0.162942
    124 H58         2.0670   -3.3580   -0.7690 hc        1 MOL      0.162942
    125 H59         2.6480   -3.5080    0.9130 hc        1 MOL      0.162942
    126 N11         5.8050   -1.3700    1.3460 n         1 MOL     -0.577808
    127 C39         7.0410   -1.7780    1.9170 c3        1 MOL      0.026769
    128 C40         8.2580   -0.9300    1.4700 c         1 MOL      0.516905
    129 O19         9.2310   -0.9120    2.2600 o         1 MOL     -0.540277
    130 C41         7.3150   -3.3070    1.5650 c3        1 MOL      0.278820
    131 C42         8.5180   -3.9390    2.3480 c3        1 MOL     -0.426885
    132 O20         7.5170   -3.2790    0.1770 oh        1 MOL     -0.645142
    133 H60         5.7680   -0.9810    0.4160 hn        1 MOL      0.264267
    134 H61         7.0690   -1.7050    3.0120 h1        1 MOL      0.118530
    135 H62         6.4220   -3.8970    1.7760 h1        1 MOL      0.041574
    136 H63         7.6460   -4.1820   -0.1190 ho        1 MOL      0.413192
    137 H64         8.3140   -5.0090    2.4620 hc        1 MOL      0.123264
    138 H65         9.4260   -3.8260    1.7620 hc        1 MOL      0.123264
    139 H66         8.5250   -3.5200    3.3560 hc        1 MOL      0.123264
    140 N12         8.2960   -0.3130    0.2540 n         1 MOL     -0.342112
    141 C43         9.4030    0.5860   -0.0580 c3        1 MOL     -0.073460
    142 C44         9.0040    1.5520   -1.1370 c         1 MOL      0.510730
    143 O21         8.5040    1.1520   -2.1680 o         1 MOL     -0.509507
    144 C45        10.6620   -0.1580   -0.5290 c3        1 MOL     -0.095429
    145 C46        11.7940    0.8100   -0.9770 c3        1 MOL     -0.131638
    146 C47        13.2030    0.2280   -1.1370 c3        1 MOL     -0.022034
    147 C48        13.2960   -0.8340   -2.2510 c3        1 MOL      0.082036
    148 N13        14.6870   -1.1080   -2.6880 n4        1 MOL     -0.274954
    149 H67         7.5360   -0.3970   -0.4000 hn        1 MOL      0.298539
    150 H68         9.8360    1.2010    0.7360 h1        1 MOL      0.096211
    151 H69        10.3180   -0.8850   -1.2700 hc        1 MOL      0.077524
    152 H70        11.0510   -0.7280    0.3080 hc        1 MOL      0.077524
    153 H71        11.8530    1.5740   -0.2110 hc        1 MOL      0.095879
    154 H72        11.6830    1.1930   -1.9920 hc        1 MOL      0.095879
    155 H73        13.5000   -0.2780   -0.2100 hc        1 MOL      0.034767
    156 H74        13.8290    1.0980   -1.3530 hc        1 MOL      0.034767
    157 H75        12.8520   -0.2650   -3.0630 hx        1 MOL      0.054164
    158 H76        12.7500   -1.7520   -2.0490 hx        1 MOL      0.054164
    159 H77        15.2150   -1.5510   -1.9430 hn        1 MOL      0.245493
    160 H78        14.6800   -1.7720   -3.4410 hn        1 MOL      0.245493
    161 H79        15.1900   -0.3370   -3.1060 hn        1 MOL      0.245493
    162 N14         9.2480    2.7980   -0.8460 n         1 MOL     -0.630068
    163 C49         8.8060    3.9320   -1.7180 c3        1 MOL      0.421048
    164 C50         7.2660    4.0000   -2.0210 c         1 MOL      0.264731
    165 O22         6.8940    4.1010   -3.1910 o         1 MOL     -0.511132
    166 C51         9.2860    5.2820   -1.1510 c3        1 MOL     -0.326061
    167 C52         8.8980    6.4730   -2.1270 c3        1 MOL     -0.208987
    168 C53         9.5220    7.7600   -1.6440 c         1 MOL      0.750510
    169 O23        10.6710    7.7180   -1.0180 o         1 MOL     -0.661975
    170 O24         8.9700    8.8320   -1.8790 o         1 MOL     -0.661975
    171 H80         9.6780    2.9360    0.0530 hn        1 MOL      0.318024
    172 H81         9.2460    3.7550   -2.6940 h1        1 MOL      0.023388
    173 H82        10.3600    5.1710   -1.0070 hc        1 MOL      0.098362
    174 H83         8.7500    5.4710   -0.2210 hc        1 MOL      0.098362
    175 H84         7.8190    6.5980   -2.1660 hc        1 MOL      0.084436
    176 H85         9.4030    6.3460   -3.0870 hc        1 MOL      0.084436
    177 N15         6.3090    3.9240   -1.0670 n         1 MOL     -0.264528
    178 C54         6.4800    3.9730    0.4130 c3        1 MOL      0.012528
    179 H86         7.5110    4.2350    0.6510 h1        1 MOL      0.038315
    180 H87         5.8100    4.7240    0.8330 h1        1 MOL      0.038315
    181 H88         6.2470    2.9970    0.8390 h1        1 MOL      0.038315
    182 H89         5.3650    4.0000   -1.4240 hn        1 MOL      0.275502
    183 Ca1        -2.0950   -3.0140   -3.0350 Ca        1 MOL      1.659034
    184 O25        -0.3930   -1.6440   -1.5170 oh        1 MOL     -0.813871
    185 H90        -0.5830   -0.9860   -0.8460 ho        1 MOL      0.400937
    186 H91         0.5400   -1.5470   -1.6960 ho        1 MOL      0.400937
    187 O26        -3.6350   -1.7830   -5.1230 oh        1 MOL     -0.813871
    188 H92        -4.1870   -1.0140   -5.3030 ho        1 MOL      0.400937
    189 H93        -3.4210   -2.1280   -5.9880 ho        1 MOL      0.400937
    190 O27        -1.9410   -4.2620   -5.3480 oh        1 MOL     -0.813871
    191 H94        -2.4750   -5.0510   -5.2860 ho        1 MOL      0.400937
    192 H95        -1.5980   -4.2840   -6.2480 ho        1 MOL      0.400937
    193 O28        -0.7470   -1.3570   -4.5660 oh        1 MOL     -0.813871
    194 H96         0.0230   -1.8210   -4.9020 ho        1 MOL      0.400937
    195 H97        -1.1770   -1.0010   -5.3430 ho        1 MOL      0.400937
    196 O29         0.2150   -4.5260   -3.1160 oh        1 MOL     -0.813871
    197 H98         0.1930   -5.4780   -3.1270 ho        1 MOL      0.400937
    198 H99         1.0690   -4.3060   -3.5050 ho        1 MOL      0.400937
@<TRIPOS>BOND
     1    1    2 1   
     2    1    4 1   
     3    1    5 1   
     4    1    6 1   
     5    2    3 2   
     6    2    7 1   
     7    7    8 1   
     8    7   15 1   
     9    8    9 1   
    10    8   11 1   
    11    8   16 1   
    12    9   10 2   
    13    9   19 1   
    14   11   12 1   
    15   11   17 1   
    16   11   18 1   
    17   12   13 1   
    18   12   14 1   
    19   19   20 1   
    20   19   28 1   
    21   20   21 1   
    22   20   23 1   
    23   20   29 1   
    24   21   22 2   
    25   21   41 1   
    26   23   24 1   
    27   23   30 1   
    28   23   31 1   
    29   24   25 1   
    30   24   32 1   
    31   24   33 1   
    32   25   26 1   
    33   25   34 1   
    34   25   35 1   
    35   26   27 1   
    36   26   36 1   
    37   26   37 1   
    38   27   38 1   
    39   27   39 1   
    40   27   40 1   
    41   41   42 1   
    42   41   49 1   
    43   42   43 1   
    44   42   45 1   
    45   42   50 1   
    46   43   44 2   
    47   43   53 1   
    48   45   46 1   
    49   45   51 1   
    50   45   52 1   
    51   46   47 1   
    52   46   48 1   
    53   53   54 1   
    54   53   57 1   
    55   54   55 1   
    56   54   58 1   
    57   54   59 1   
    58   55   56 2   
    59   55   60 1   
    60   60   61 1   
    61   60   68 1   
    62   61   62 1   
    63   61   64 1   
    64   61   69 1   
    65   62   63 2   
    66   62   72 1   
    67   64   65 1   
    68   64   70 1   
    69   64   71 1   
    70   65   66 1   
    71   65   67 1   
    72   72   73 1   
    73   72   76 1   
    74   73   74 1   
    75   73   77 1   
    76   73   78 1   
    77   74   75 2   
    78   74   79 1   
    79   79   80 1   
    80   79   86 1   
    81   80   81 1   
    82   80   83 1   
    83   80   87 1   
    84   81   82 2   
    85   81   93 1   
    86   83   84 1   
    87   83   85 1   
    88   83   88 1   
    89   84   90 1   
    90   84   91 1   
    91   84   92 1   
    92   85   89 1   
    93   93   94 1   
    94   93  101 1   
    95   94   95 1   
    96   94   97 1   
    97   94  102 1   
    98   95   96 2   
    99   95  112 1   
   100   97   98 1   
   101   97   99 1   
   102   97  103 1   
   103   98  100 1   
   104   98  104 1   
   105   98  105 1   
   106   99  106 1   
   107   99  107 1   
   108   99  108 1   
   109  100  109 1   
   110  100  110 1   
   111  100  111 1   
   112  112  113 1   
   113  112  119 1   
   114  113  114 1   
   115  113  116 1   
   116  113  120 1   
   117  114  115 2   
   118  114  126 1   
   119  116  117 1   
   120  116  118 1   
   121  116  121 1   
   122  117  123 1   
   123  117  124 1   
   124  117  125 1   
   125  118  122 1   
   126  126  127 1   
   127  126  133 1   
   128  127  128 1   
   129  127  130 1   
   130  127  134 1   
   131  128  129 2   
   132  128  140 1   
   133  130  131 1   
   134  130  132 1   
   135  130  135 1   
   136  131  137 1   
   137  131  138 1   
   138  131  139 1   
   139  132  136 1   
   140  140  141 1   
   141  140  149 1   
   142  141  142 1   
   143  141  144 1   
   144  141  150 1   
   145  142  143 2   
   146  142  162 1   
   147  144  145 1   
   148  144  151 1   
   149  144  152 1   
   150  145  146 1   
   151  145  153 1   
   152  145  154 1   
   153  146  147 1   
   154  146  155 1   
   155  146  156 1   
   156  147  148 1   
   157  147  157 1   
   158  147  158 1   
   159  148  159 1   
   160  148  160 1   
   161  148  161 1   
   162  162  163 1   
   163  162  171 1   
   164  163  164 1   
   165  163  166 1   
   166  163  172 1   
   167  164  165 2   
   168  164  177 1   
   169  166  167 1   
   170  166  173 1   
   171  166  174 1   
   172  167  168 1   
   173  167  175 1   
   174  167  176 1   
   175  168  169 1   
   176  168  170 1   
   177  177  178 1   
   178  177  182 1   
   179  178  179 1   
   180  178  180 1   
   181  178  181 1   
   182  184  185 1   
   183  184  186 1   
   184  187  188 1   
   185  187  189 1   
   186  190  191 1   
   187  190  192 1   
   188  193  194 1   
   189  193  195 1   
   190  196  197 1   
   191  196  198 1   
@<TRIPOS>SUBSTRUCTURE
     1 MOL         1 TEMP              0 ****  ****    0 ROOT
