@<TRIPOS>MOLECULE
MOL
  189   185     1     0     0
SMALL
resp


@<TRIPOS>ATOM
      1 C1          9.0040    2.2230    0.7610 c3        1 MOL     -0.525767
      2 C2          8.0090    1.2490    0.1870 c         1 MOL      0.844883
      3 O1          7.1290    0.8600    0.9160 o         1 MOL     -0.690669
      4 H1          8.4760    3.0910    1.1560 hc        1 MOL      0.125044
      5 H2          9.5630    1.7420    1.5640 hc        1 MOL      0.125044
      6 H3          9.6940    2.5430   -0.0210 hc        1 MOL      0.125044
      7 N1          8.1990    0.9170   -1.0800 n         1 MOL     -0.660900
      8 C3          7.1250    0.3960   -1.9730 c3        1 MOL      0.113347
      9 C4          6.9140   -1.0610   -1.8250 c         1 MOL      0.549812
     10 O2          6.8270   -1.8000   -2.8310 o         1 MOL     -0.460289
     11 C5          7.4860    0.8920   -3.4370 c3        1 MOL     -0.296620
     12 C6          8.7730    0.2570   -3.9940 c         1 MOL      0.706157
     13 O3          9.5190   -0.4620   -3.2900 o         1 MOL     -0.640386
     14 O4          8.9760    0.4510   -5.2180 o         1 MOL     -0.640386
     15 H4          8.9740    1.3100   -1.5910 hn        1 MOL      0.329910
     16 H5          6.1580    0.8430   -1.7480 h1        1 MOL      0.058557
     17 H6          7.6690    1.9660   -3.4620 hc        1 MOL      0.098341
     18 H7          6.6470    0.6000   -4.0650 hc        1 MOL      0.098341
     19 N2          6.8250   -1.5120   -0.5570 n         1 MOL     -0.533798
     20 C7          6.5310   -2.8130   -0.0070 c3        1 MOL      0.268341
     21 C8          5.1270   -3.2540   -0.2300 c         1 MOL      0.415109
     22 O5          4.9440   -4.4000   -0.6930 o         1 MOL     -0.546972
     23 C9          6.9920   -2.9160    1.4680 c3        1 MOL     -0.074721
     24 C10         8.5540   -3.1830    1.5920 c3        1 MOL     -0.050150
     25 C11         8.9920   -3.2610    3.0630 c3        1 MOL      0.074881
     26 C12        10.5040   -3.1900    3.1460 c3        1 MOL      0.058078
     27 N3         10.9380   -3.1150    4.5770 n4        1 MOL     -0.220204
     28 H8          6.7170   -0.7980    0.1420 hn        1 MOL      0.321990
     29 H9          7.0480   -3.6480   -0.4660 h1        1 MOL      0.025938
     30 H10         6.4770   -3.7670    1.9020 hc        1 MOL      0.018928
     31 H11         6.7630   -2.0330    2.0710 hc        1 MOL      0.018928
     32 H12         9.1620   -2.4130    1.1140 hc        1 MOL      0.040896
     33 H13         8.8050   -4.1630    1.1950 hc        1 MOL      0.040896
     34 H14         8.6240   -4.1620    3.5510 hc        1 MOL     -0.003275
     35 H15         8.6080   -2.4320    3.6500 hc        1 MOL     -0.003275
     36 H16        10.8260   -2.3090    2.5860 hx        1 MOL      0.059570
     37 H17        10.9250   -4.0620    2.6510 hx        1 MOL      0.059570
     38 H18        11.9420   -3.1110    4.5980 hn        1 MOL      0.235464
     39 H19        10.7330   -2.1900    4.9270 hn        1 MOL      0.235464
     40 H20        10.4870   -3.8080    5.1670 hn        1 MOL      0.235464
     41 N4          4.0590   -2.5160    0.1300 n         1 MOL     -0.325514
     42 C13         3.9670   -1.3670    0.9580 c3        1 MOL     -0.030684
     43 C14         3.7590   -0.1000    0.0520 c         1 MOL      0.026762
     44 O6          3.4610   -0.2800   -1.1200 o         1 MOL     -0.352150
     45 C15         2.8220   -1.5070    1.9440 c3        1 MOL     -0.157787
     46 C16         1.5030   -1.9680    1.3180 c         1 MOL      0.644316
     47 O7          0.9910   -1.2960    0.3610 o         1 MOL     -0.634650
     48 O8          0.9930   -2.9420    1.8440 o         1 MOL     -0.634650
     49 H21         3.2210   -2.8750   -0.3080 hn        1 MOL      0.332998
     50 H22         4.9290   -1.1930    1.4400 h1        1 MOL      0.094324
     51 H23         2.8410   -0.5550    2.4800 hc        1 MOL      0.028631
     52 H24         2.9810   -2.2700    2.7020 hc        1 MOL      0.028631
     53 N5          3.9840    1.0670    0.5640 n         1 MOL     -0.024302
     54 C17         3.8790    2.3720   -0.1240 c3        1 MOL     -0.086424
     55 C18         2.4470    2.7750   -0.6360 c         1 MOL      0.577961
     56 O9          1.4810    2.0610   -0.3200 o         1 MOL     -0.539985
     57 H25         4.2540    1.1650    1.5370 hn        1 MOL      0.239572
     58 H26         4.5290    2.3180   -0.9990 h1        1 MOL      0.052239
     59 H27         4.2910    3.1330    0.5360 h1        1 MOL      0.052239
     60 N6          2.3860    3.8340   -1.4930 n         1 MOL     -0.445200
     61 C19         1.1950    4.4920   -1.9870 c3        1 MOL      0.172354
     62 C20         1.3560    6.0300   -2.1740 c         1 MOL      0.455430
     63 O10         2.4610    6.5000   -2.4370 o         1 MOL     -0.530632
     64 C21         0.7360    3.8660   -3.2950 c3        1 MOL     -0.269358
     65 C22         0.4500    2.3920   -3.2100 c         1 MOL      0.751270
     66 O11        -0.6280    2.1640   -2.5780 o         1 MOL     -0.676201
     67 O12         1.1540    1.5680   -3.7750 o         1 MOL     -0.676201
     68 H28         3.2550    4.3600   -1.5400 hn        1 MOL      0.278350
     69 H29         0.4270    4.3870   -1.2140 h1        1 MOL      0.002495
     70 H30         1.4940    3.9070   -4.0820 hc        1 MOL      0.077810
     71 H31        -0.1340    4.3470   -3.7440 hc        1 MOL      0.077810
     72 N7          0.3190    6.8600   -2.0950 n         1 MOL     -0.375964
     73 C23        -1.0630    6.5200   -1.8360 c3        1 MOL     -0.134556
     74 C24        -1.3130    6.0720   -0.3870 c         1 MOL      0.653849
     75 O13        -0.6840    6.6140    0.5010 o         1 MOL     -0.550383
     76 H32         0.5780    7.8290   -1.9880 hn        1 MOL      0.306618
     77 H33        -1.3890    5.7550   -2.5350 h1        1 MOL      0.092964
     78 H34        -1.6150    7.4400   -2.0220 h1        1 MOL      0.092964
     79 N8         -2.1460    5.1000   -0.2090 n         1 MOL     -0.542727
     80 C25        -2.6010    4.6410    1.1390 c3        1 MOL      0.069621
     81 C26        -1.9010    3.3540    1.5920 c         1 MOL      0.677923
     82 O14        -1.3610    2.7430    0.7240 o         1 MOL     -0.613884
     83 C27        -4.1170    4.4440    1.3100 c3        1 MOL      0.379568
     84 C28        -4.6490    3.4980    0.1950 c3        1 MOL     -0.280841
     85 O15        -4.8580    5.6810    1.2370 oh        1 MOL     -0.616613
     86 H35        -2.6580    4.6730   -0.9640 hn        1 MOL      0.266660
     87 H36        -2.2610    5.3780    1.8710 h1        1 MOL      0.004254
     88 H37        -4.3130    3.9800    2.2750 h1        1 MOL     -0.090627
     89 H38        -4.5040    6.2300    1.9320 ho        1 MOL      0.374201
     90 H39        -4.2470    2.5000    0.3830 hc        1 MOL      0.098822
     91 H40        -5.7380    3.4600    0.2310 hc        1 MOL      0.098822
     92 H41        -4.3530    3.7710   -0.8110 hc        1 MOL      0.098822
     93 N9         -1.8910    3.0080    2.8620 n         1 MOL     -0.370414
     94 C29        -1.2760    1.8080    3.4280 c3        1 MOL     -0.048933
     95 C30        -1.8520    0.5120    2.9260 c         1 MOL      0.485638
     96 O16        -1.9100    0.3070    1.7120 o         1 MOL     -0.553141
     97 C31         0.2880    1.8430    3.3530 c3        1 MOL      0.129096
     98 C32         0.9700    3.1730    3.7080 c3        1 MOL      0.166832
     99 C33         0.8240    0.7600    4.3630 c3        1 MOL     -0.444838
    100 C34         1.6990    3.8840    2.6180 c3        1 MOL     -0.208739
    101 H42        -2.3810    3.5980    3.5230 hn        1 MOL      0.258982
    102 H43        -1.6480    1.8830    4.4480 h1        1 MOL      0.052041
    103 H44         0.6830    1.6070    2.3620 hc        1 MOL     -0.053255
    104 H45         1.6370    3.0400    4.5590 hc        1 MOL     -0.053131
    105 H46         0.1150    3.7970    3.9960 hc        1 MOL     -0.053131
    106 H47         1.8890    0.8460    4.5520 hc        1 MOL      0.114970
    107 H48         0.3810    0.9080    5.3480 hc        1 MOL      0.114970
    108 H49         0.6210   -0.2560    4.0340 hc        1 MOL      0.114970
    109 H50         2.5490    3.2550    2.3840 hc        1 MOL      0.056839
    110 H51         1.0370    3.9700    1.7560 hc        1 MOL      0.056839
    111 H52         1.9420    4.8840    2.9900 hc        1 MOL      0.056839
    112 N10        -2.0910   -0.4600    3.8080 n         1 MOL     -0.218081
    113 C35        -2.6050   -1.8700    3.5550 c3        1 MOL     -0.241433
    114 C36        -4.0240   -1.9050    2.8720 c         1 MOL      0.393905
    115 O17        -4.4560   -2.9390    2.3530 o         1 MOL     -0.543571
    116 C37        -2.5580   -2.6770    4.8820 c3        1 MOL      0.486526
    117 C38        -3.7760   -2.4020    5.7480 c3        1 MOL     -0.409506
    118 O18        -1.3820   -2.3500    5.5340 oh        1 MOL     -0.626116
    119 H53        -1.8480   -0.1920    4.7490 hn        1 MOL      0.240380
    120 H54        -1.9270   -2.3660    2.8620 h1        1 MOL      0.114983
    121 H55        -2.5050   -3.7470    4.6680 h1        1 MOL      0.004961
    122 H56        -0.6800   -2.9070    5.1870 ho        1 MOL      0.407480
    123 H57        -3.7000   -3.0710    6.6060 hc        1 MOL      0.106333
    124 H58        -3.7740   -1.4210    6.2260 hc        1 MOL      0.106333
    125 H59        -4.7450   -2.5130    5.2610 hc        1 MOL      0.106333
    126 N11        -4.6250   -0.7600    2.8350 n         1 MOL      0.013849
    127 C39        -5.8490   -0.5530    2.1180 c3        1 MOL     -0.031039
    128 C40        -5.8870   -0.9040    0.6290 c         1 MOL      0.598063
    129 O19        -5.4400   -0.0970   -0.1730 o         1 MOL     -0.543425
    130 C41        -6.4560    0.8310    2.4130 c3        1 MOL      0.414876
    131 C42        -8.0120    0.7780    2.3960 c3        1 MOL     -0.555210
    132 O20        -5.9530    1.2800    3.6170 oh        1 MOL     -0.652556
    133 H60        -4.2110    0.0070    3.3500 hn        1 MOL      0.064482
    134 H61        -6.6150   -1.2090    2.5150 h1        1 MOL     -0.002682
    135 H62        -6.0880    1.5950    1.7280 h1        1 MOL      0.004192
    136 H63        -6.4590    2.0260    3.9410 ho        1 MOL      0.424367
    137 H64        -8.2890    1.7840    2.7310 hc        1 MOL      0.142026
    138 H65        -8.4070    0.6520    1.3820 hc        1 MOL      0.142026
    139 H66        -8.3130    0.0490    3.1390 hc        1 MOL      0.142026
    140 N12        -6.4650   -2.0630    0.2010 n         1 MOL     -0.448219
    141 C43        -6.5800   -2.4060   -1.2480 c3        1 MOL      0.128460
    142 C44        -5.2610   -2.5760   -2.0200 c         1 MOL      0.452169
    143 O21        -5.1050   -2.0290   -3.1520 o         1 MOL     -0.472158
    144 C45        -7.5680   -1.4940   -1.9750 c3        1 MOL     -0.289236
    145 C46        -8.7180   -0.9350   -1.1410 c3        1 MOL      0.352374
    146 C47        -9.9880   -0.4890   -1.8660 c3        1 MOL     -0.057656
    147 C48       -10.8020   -1.6180   -2.4970 c3        1 MOL     -0.010678
    148 N13       -12.0450   -1.1300   -3.2280 n4        1 MOL     -0.002462
    149 H67        -6.9680   -2.6290    0.8550 hn        1 MOL      0.282688
    150 H68        -7.0180   -3.3970   -1.3200 h1        1 MOL      0.044264
    151 H69        -7.9730   -2.0400   -2.8270 hc        1 MOL      0.090812
    152 H70        -7.0690   -0.6440   -2.4270 hc        1 MOL      0.090812
    153 H71        -8.4110   -0.0720   -0.5580 hc        1 MOL     -0.083892
    154 H72        -8.9810   -1.6620   -0.3700 hc        1 MOL     -0.083892
    155 H73        -9.6480    0.2230   -2.6320 hc        1 MOL      0.020148
    156 H74       -10.5990   -0.0110   -1.1060 hc        1 MOL      0.020148
    157 H75       -11.0200   -2.3860   -1.7640 hx        1 MOL      0.058426
    158 H76       -10.0910   -2.0590   -3.1950 hx        1 MOL      0.058426
    159 H77       -12.2770   -1.6670   -4.0480 hn        1 MOL      0.151982
    160 H78       -12.8050   -1.3160   -2.5930 hn        1 MOL      0.151982
    161 H79       -12.0990   -0.1310   -3.3690 hn        1 MOL      0.151982
    162 N14        -4.3290   -3.3380   -1.4130 n         1 MOL     -0.465654
    163 C49        -2.9880   -3.6290   -1.8200 c3        1 MOL      0.330176
    164 C50        -1.9910   -3.1750   -0.6820 c         1 MOL      0.268055
    165 O22        -1.5020   -2.0310   -0.8030 o         1 MOL     -0.517813
    166 C51        -2.7260   -5.0170   -2.3930 c3        1 MOL     -0.015492
    167 C52        -3.4250   -5.3670   -3.6820 c3        1 MOL     -0.219958
    168 C53        -2.6950   -4.7030   -4.8410 c         1 MOL      0.740436
    169 O23        -2.9240   -3.5520   -5.1010 o         1 MOL     -0.623623
    170 O24        -1.7910   -5.3320   -5.4510 o         1 MOL     -0.623623
    171 H80        -4.6850   -3.7030   -0.5390 hn        1 MOL      0.246837
    172 H81        -2.7580   -2.9260   -2.6240 h1        1 MOL      0.080021
    173 H82        -3.1830   -5.7150   -1.6820 hc        1 MOL      0.022476
    174 H83        -1.6510   -5.1710   -2.4780 hc        1 MOL      0.022476
    175 H84        -4.4290   -4.9520   -3.6350 hc        1 MOL      0.012852
    176 H85        -3.3270   -6.4310   -3.8650 hc        1 MOL      0.012852
    177 N15        -1.5110   -3.9870    0.2970 n         1 MOL     -0.131674
    178 C54        -1.6810   -5.4290    0.5730 c3        1 MOL     -0.119265
    179 H86        -1.1360   -5.6920    1.4790 h1        1 MOL      0.058603
    180 H87        -2.7400   -5.6500    0.7100 h1        1 MOL      0.058603
    181 H88        -1.2940   -6.0080   -0.2650 h1        1 MOL      0.058603
    182 H89        -0.8620   -3.4620    0.8630 hn        1 MOL      0.217654
    183 Ca1        -0.5900    0.4530   -0.7100 Ca        1 MOL      1.782864
    184 O25        -3.1420    0.5860   -1.4590 oh        1 MOL     -1.036936
    185 H90        -3.3120    0.4710   -2.3950 ho        1 MOL      0.476125
    186 H91        -3.9830    0.4300   -1.0330 ho        1 MOL      0.476125
    187 O26         0.3320   -0.7020   -2.8190 oh        1 MOL     -1.036936
    188 H92         0.6580   -1.5140   -3.2020 ho        1 MOL      0.476125
    189 H93         0.7210   -0.0140   -3.3590 ho        1 MOL      0.476125
@<TRIPOS>BOND
     1    1    2 1   
     2    1    4 1   
     3    1    5 1   
     4    1    6 1   
     5    2    3 2   
     6    2    7 1   
     7    7    8 1   
     8    7   15 1   
     9    8    9 1   
    10    8   11 1   
    11    8   16 1   
    12    9   10 2   
    13    9   19 1   
    14   11   12 1   
    15   11   17 1   
    16   11   18 1   
    17   12   13 1   
    18   12   14 1   
    19   19   20 1   
    20   19   28 1   
    21   20   21 1   
    22   20   23 1   
    23   20   29 1   
    24   21   22 2   
    25   21   41 1   
    26   23   24 1   
    27   23   30 1   
    28   23   31 1   
    29   24   25 1   
    30   24   32 1   
    31   24   33 1   
    32   25   26 1   
    33   25   34 1   
    34   25   35 1   
    35   26   27 1   
    36   26   36 1   
    37   26   37 1   
    38   27   38 1   
    39   27   39 1   
    40   27   40 1   
    41   41   42 1   
    42   41   49 1   
    43   42   43 1   
    44   42   45 1   
    45   42   50 1   
    46   43   44 2   
    47   43   53 1   
    48   45   46 1   
    49   45   51 1   
    50   45   52 1   
    51   46   47 1   
    52   46   48 1   
    53   53   54 1   
    54   53   57 1   
    55   54   55 1   
    56   54   58 1   
    57   54   59 1   
    58   55   56 2   
    59   55   60 1   
    60   60   61 1   
    61   60   68 1   
    62   61   62 1   
    63   61   64 1   
    64   61   69 1   
    65   62   63 2   
    66   62   72 1   
    67   64   65 1   
    68   64   70 1   
    69   64   71 1   
    70   65   66 1   
    71   65   67 1   
    72   72   73 1   
    73   72   76 1   
    74   73   74 1   
    75   73   77 1   
    76   73   78 1   
    77   74   75 2   
    78   74   79 1   
    79   79   80 1   
    80   79   86 1   
    81   80   81 1   
    82   80   83 1   
    83   80   87 1   
    84   81   82 2   
    85   81   93 1   
    86   83   84 1   
    87   83   85 1   
    88   83   88 1   
    89   84   90 1   
    90   84   91 1   
    91   84   92 1   
    92   85   89 1   
    93   93   94 1   
    94   93  101 1   
    95   94   95 1   
    96   94   97 1   
    97   94  102 1   
    98   95   96 2   
    99   95  112 1   
   100   97   98 1   
   101   97   99 1   
   102   97  103 1   
   103   98  100 1   
   104   98  104 1   
   105   98  105 1   
   106   99  106 1   
   107   99  107 1   
   108   99  108 1   
   109  100  109 1   
   110  100  110 1   
   111  100  111 1   
   112  112  113 1   
   113  112  119 1   
   114  113  114 1   
   115  113  116 1   
   116  113  120 1   
   117  114  115 2   
   118  114  126 1   
   119  116  117 1   
   120  116  118 1   
   121  116  121 1   
   122  117  123 1   
   123  117  124 1   
   124  117  125 1   
   125  118  122 1   
   126  126  127 1   
   127  126  133 1   
   128  127  128 1   
   129  127  130 1   
   130  127  134 1   
   131  128  129 2   
   132  128  140 1   
   133  130  131 1   
   134  130  132 1   
   135  130  135 1   
   136  131  137 1   
   137  131  138 1   
   138  131  139 1   
   139  132  136 1   
   140  140  141 1   
   141  140  149 1   
   142  141  142 1   
   143  141  144 1   
   144  141  150 1   
   145  142  143 2   
   146  142  162 1   
   147  144  145 1   
   148  144  151 1   
   149  144  152 1   
   150  145  146 1   
   151  145  153 1   
   152  145  154 1   
   153  146  147 1   
   154  146  155 1   
   155  146  156 1   
   156  147  148 1   
   157  147  157 1   
   158  147  158 1   
   159  148  159 1   
   160  148  160 1   
   161  148  161 1   
   162  162  163 1   
   163  162  171 1   
   164  163  164 1   
   165  163  166 1   
   166  163  172 1   
   167  164  165 2   
   168  164  177 1   
   169  166  167 1   
   170  166  173 1   
   171  166  174 1   
   172  167  168 1   
   173  167  175 1   
   174  167  176 1   
   175  168  169 1   
   176  168  170 1   
   177  177  178 1   
   178  177  182 1   
   179  178  179 1   
   180  178  180 1   
   181  178  181 1   
   182  184  185 1   
   183  184  186 1   
   184  187  188 1   
   185  187  189 1   
@<TRIPOS>SUBSTRUCTURE
     1 MOL         1 TEMP              0 ****  ****    0 ROOT
