@<TRIPOS>MOLECULE
MOL
  181   177     1     0     0
SMALL
resp


@<TRIPOS>ATOM
      1 C1         10.0440    7.2740   -2.1870 c3        1 MOL     -0.344374
      2 C2          8.8020    6.7060   -1.4100 c         1 MOL      0.710212
      3 O1          7.8960    7.4170   -1.0560 o         1 MOL     -0.612674
      4 H1         10.6340    6.4470   -2.5820 hc        1 MOL      0.078733
      5 H2          9.7010    7.9000   -3.0110 hc        1 MOL      0.078733
      6 H3         10.6570    7.8680   -1.5100 hc        1 MOL      0.078733
      7 N1          8.8000    5.4750   -1.0360 n         1 MOL     -0.587964
      8 C3          9.8910    4.4760   -1.3490 c3        1 MOL      0.111314
      9 C4         10.3960    3.6860   -0.1480 c         1 MOL      0.383417
     10 O2         11.3300    2.9270   -0.4080 o         1 MOL     -0.545261
     11 C5          9.3530    3.5720   -2.4890 c3        1 MOL     -0.107170
     12 C6          8.2210    2.5830   -2.1200 c         1 MOL      0.682969
     13 O3          7.8530    1.7410   -2.9310 o         1 MOL     -0.693614
     14 O4          7.7610    2.6440   -0.9390 o         1 MOL     -0.693614
     15 H4          7.9820    5.2250   -0.5040 hn        1 MOL      0.338618
     16 H5         10.7670    4.9550   -1.8070 h1        1 MOL      0.086923
     17 H6         10.1900    2.9750   -2.8640 hc        1 MOL      0.026068
     18 H7          9.0170    4.1250   -3.3700 hc        1 MOL      0.026068
     19 N2          9.9150    3.9850    1.0060 n         1 MOL     -0.337150
     20 C7         10.1890    3.3580    2.2900 c3        1 MOL      0.233113
     21 C8          9.9820    1.8690    2.4550 c         1 MOL      0.255812
     22 O5         10.5190    1.2680    3.4380 o         1 MOL     -0.543780
     23 C9          9.5100    4.2090    3.3980 c3        1 MOL     -0.475535
     24 H8          9.1710    4.6770    0.9990 hn        1 MOL      0.250059
     25 H9         11.2430    3.6240    2.3860 h1        1 MOL      0.048427
     26 H10         8.4580    3.9580    3.2330 hc        1 MOL      0.146336
     27 H11         9.8270    3.7730    4.3480 hc        1 MOL      0.146336
     28 H12         9.8610    5.2270    3.2780 hc        1 MOL      0.146336
     29 N3          9.2330    1.1850    1.6330 n         1 MOL     -0.068041
     30 C10         8.6990   -0.1690    1.8710 c3        1 MOL      0.021797
     31 C11         8.3860   -0.9000    0.5830 c         1 MOL      0.365239
     32 O6          8.3350   -0.3390   -0.5070 o         1 MOL     -0.488090
     33 C12         7.4560   -0.0670    2.7200 c3        1 MOL     -0.196670
     34 C13         6.3950    0.8570    2.0220 c         1 MOL      0.687512
     35 O7          6.1900    1.9990    2.5510 o         1 MOL     -0.680344
     36 O8          5.7990    0.5170    0.9950 o         1 MOL     -0.680344
     37 H13         8.8570    1.6370    0.8090 hn        1 MOL      0.205864
     38 H14         9.4620   -0.7780    2.3560 h1        1 MOL      0.040564
     39 H15         7.7080    0.3680    3.6970 hc        1 MOL      0.063031
     40 H16         6.9830   -0.9950    3.0270 hc        1 MOL      0.063031
     41 N4          8.4440   -2.2230    0.7610 n         1 MOL     -0.245679
     42 C14         8.2250   -3.1640   -0.3540 c3        1 MOL     -0.331359
     43 C15         6.7220   -3.1810   -0.8310 c         1 MOL      0.517492
     44 O9          5.9850   -2.2100   -0.6670 o         1 MOL     -0.498989
     45 H17         8.5170   -2.5690    1.7140 hn        1 MOL      0.286457
     46 H18         8.4190   -4.1760   -0.0310 h1        1 MOL      0.149401
     47 H19         8.8200   -2.8420   -1.2170 h1        1 MOL      0.149401
     48 N5          6.3370   -4.3570   -1.3880 n         1 MOL     -0.325269
     49 C16         5.0230   -4.8640   -1.6400 c3        1 MOL      0.056802
     50 C17         3.9010   -4.6100   -0.5540 c         1 MOL      0.464965
     51 O10         4.1360   -4.4140    0.6370 o         1 MOL     -0.448737
     52 C18         5.1700   -6.3740   -1.8560 c3        1 MOL     -0.352083
     53 C19         3.8120   -6.9590   -2.3100 c         1 MOL      0.705289
     54 N6          3.1620   -7.8310   -1.5790 n         1 MOL     -0.769234
     55 O11         3.3800   -6.6300   -3.3950 o         1 MOL     -0.560113
     56 H20         7.1760   -4.8890   -1.6120 hn        1 MOL      0.240789
     57 H21         4.6500   -4.3940   -2.5420 h1        1 MOL      0.046340
     58 H22         5.5100   -6.9060   -0.9670 hc        1 MOL      0.109114
     59 H23         5.9590   -6.6100   -2.5580 hc        1 MOL      0.109114
     60 H24         3.3320   -7.8880   -0.5780 hn        1 MOL      0.368431
     61 H25         2.2370   -8.0490   -1.8880 hn        1 MOL      0.368431
     62 N7          2.6200   -4.5200   -1.0220 n         1 MOL     -0.489198
     63 C20         1.4830   -4.1120   -0.2360 c3        1 MOL      0.007238
     64 C21         1.6320   -2.8480    0.5890 c         1 MOL      0.778728
     65 O12         2.3210   -1.9310    0.2080 o         1 MOL     -0.613312
     66 H26         2.3360   -4.7620   -1.9580 hn        1 MOL      0.318473
     67 H27         1.4370   -4.9390    0.4740 h1        1 MOL      0.077583
     68 H28         0.5370   -4.0030   -0.7760 h1        1 MOL      0.077583
     69 N8          0.7930   -2.7100    1.6350 n         1 MOL     -0.593697
     70 C22        -0.1470   -3.6710    2.2170 c3        1 MOL     -0.216542
     71 C23        -1.6230   -3.3160    2.2430 c         1 MOL      0.670276
     72 O13        -2.4570   -4.1330    2.6740 o         1 MOL     -0.602767
     73 C24         0.3260   -3.9590    3.5980 c3        1 MOL      0.366499
     74 C25         1.8340   -4.4250    3.5590 c3        1 MOL     -0.322106
     75 O14         0.3040   -2.7850    4.4360 oh        1 MOL     -0.602827
     76 H29         0.8680   -1.8250    2.1190 hn        1 MOL      0.378444
     77 H30        -0.0250   -4.6670    1.7710 h1        1 MOL      0.107695
     78 H31        -0.2180   -4.7180    4.1570 h1        1 MOL      0.012881
     79 H32         0.6770   -3.0340    5.2870 ho        1 MOL      0.398003
     80 H33         2.5030   -3.5890    3.3710 hc        1 MOL      0.068309
     81 H34         2.1510   -4.8600    4.5090 hc        1 MOL      0.068309
     82 H35         1.9380   -5.2390    2.8440 hc        1 MOL      0.068309
     83 N9         -1.9720   -2.1150    1.8720 n         1 MOL     -0.360554
     84 C26        -3.3810   -1.6630    1.8010 c3        1 MOL     -0.033752
     85 C27        -3.4680   -0.7020    0.6430 c         1 MOL      0.543119
     86 O15        -2.5250   -0.0060    0.3000 o         1 MOL     -0.572002
     87 C28        -3.7810   -0.9100    3.1410 c3        1 MOL      0.037368
     88 C29        -3.4650   -1.7630    4.4480 c3        1 MOL      0.307151
     89 C30        -5.2150   -0.4650    3.0970 c3        1 MOL     -0.087071
     90 C31        -3.7450   -0.9470    5.7080 c3        1 MOL     -0.203523
     91 H36        -1.2670   -1.4160    1.6620 hn        1 MOL      0.233659
     92 H37        -4.0250   -2.5350    1.6920 h1        1 MOL      0.138181
     93 H38        -3.1420   -0.0350    3.2830 hc        1 MOL      0.031673
     94 H39        -2.4440   -2.1300    4.5670 hc        1 MOL     -0.100130
     95 H40        -4.1590   -2.5900    4.3810 hc        1 MOL     -0.100130
     96 H41        -5.9210   -1.2930    3.2410 hc        1 MOL      0.014852
     97 H42        -5.4670    0.2900    3.8390 hc        1 MOL      0.014852
     98 H43        -5.4580    0.0380    2.1680 hc        1 MOL      0.014852
     99 H44        -3.2110    0.0040    5.6710 hc        1 MOL      0.033135
    100 H45        -4.8250   -0.8270    5.8050 hc        1 MOL      0.033135
    101 H46        -3.4100   -1.5170    6.5720 hc        1 MOL      0.033135
    102 N10        -4.5500   -0.6380   -0.1410 n         1 MOL     -0.333573
    103 C32        -5.8220   -1.3230   -0.1410 c3        1 MOL     -0.108014
    104 C33        -6.9210   -0.3750   -0.4950 c         1 MOL      0.727166
    105 O16        -6.8320    0.4760   -1.3940 o         1 MOL     -0.551176
    106 C34        -5.8700   -2.5520   -1.1340 c3        1 MOL     -0.157151
    107 C35        -4.5660   -3.2610   -1.3550 c         1 MOL      0.740153
    108 O17        -3.8360   -2.9000   -2.3280 o         1 MOL     -0.744394
    109 O18        -4.3280   -4.2050   -0.6530 o         1 MOL     -0.744394
    110 H47        -4.3890    0.0700   -0.8360 hn        1 MOL      0.256791
    111 H48        -6.0410   -1.7750    0.8270 h1        1 MOL      0.064015
    112 H49        -6.1340   -2.1910   -2.1250 hc        1 MOL      0.040382
    113 H50        -6.5700   -3.2390   -0.6540 hc        1 MOL      0.040382
    114 N11        -8.0190   -0.5830    0.2110 n         1 MOL     -0.619716
    115 C36        -9.3010    0.0010   -0.1720 c3        1 MOL      0.331902
    116 C37       -10.0480    0.6360    1.0030 c         1 MOL      0.342226
    117 O19        -9.6780    0.4180    2.1510 o         1 MOL     -0.505176
    118 C38       -10.1310   -1.0640   -0.8900 c3        1 MOL     -0.160625
    119 C39        -9.4380   -1.7230   -2.0690 ca        1 MOL      0.239174
    120 C40        -9.1890   -0.9160   -3.2090 ca        1 MOL     -0.285549
    121 C41        -9.2070   -3.1210   -2.1410 ca        1 MOL     -0.285549
    122 C42        -8.7190   -1.5260   -4.3870 ca        1 MOL     -0.016223
    123 C43        -8.5850   -3.6600   -3.2870 ca        1 MOL     -0.016223
    124 C44        -8.3790   -2.8620   -4.4250 ca        1 MOL     -0.250741
    125 H51        -7.9820   -1.1840    1.0190 hn        1 MOL      0.337394
    126 H52        -9.0460    0.7320   -0.9340 h1        1 MOL      0.061132
    127 H53       -11.1310   -0.7290   -1.1570 hc        1 MOL      0.004520
    128 H54       -10.2160   -1.8330   -0.1230 hc        1 MOL      0.004520
    129 H55        -9.1860    0.1610   -3.1040 ha        1 MOL      0.136223
    130 H56        -9.4160   -3.6060   -1.2040 ha        1 MOL      0.136223
    131 H57        -8.5510   -0.8860   -5.2430 ha        1 MOL      0.095285
    132 H58        -8.4500   -4.7200   -3.4560 ha        1 MOL      0.095285
    133 H59        -7.9170   -3.3100   -5.2920 ha        1 MOL      0.140420
    134 N12       -10.9140    1.5980    0.7660 n         1 MOL     -0.118978
    135 C45       -11.1180    2.3340   -0.5580 c3        1 MOL     -0.000065
    136 C46        -9.9130    3.1060   -1.0990 c         1 MOL      0.613428
    137 O20        -9.5830    3.0120   -2.2530 o         1 MOL     -0.598612
    138 C47       -12.3140    3.3850   -0.3020 c3        1 MOL     -0.126457
    139 C48       -12.8990    2.9160    1.0650 c3        1 MOL     -0.012631
    140 C49       -11.7720    2.1930    1.7650 c3        1 MOL     -0.013818
    141 H60       -11.3100    1.6790   -1.4010 h1        1 MOL      0.049803
    142 H61       -11.8580    4.3730   -0.2920 hc        1 MOL      0.049873
    143 H62       -13.0930    3.2100   -1.0590 hc        1 MOL      0.049873
    144 H63       -13.2750    3.7480    1.6590 hc        1 MOL      0.018375
    145 H64       -13.7410    2.2460    0.8960 hc        1 MOL      0.018375
    146 H65       -11.2030    2.8190    2.4510 h1        1 MOL      0.057805
    147 H66       -12.2740    1.4660    2.3930 h1        1 MOL      0.057805
    148 N13        -9.1030    3.6490   -0.1800 n         1 MOL     -0.562649
    149 C50        -7.7070    4.0890   -0.3780 c3        1 MOL      0.305389
    150 C51        -7.7020    5.3270   -1.3560 c         1 MOL      0.381322
    151 O21        -8.1170    6.4000   -0.9480 o         1 MOL     -0.580074
    152 C52        -7.1730    4.3440    1.0160 c3        1 MOL     -0.160540
    153 C53        -6.9960    2.9890    1.6450 c3        1 MOL      0.037965
    154 C54        -6.0250    2.9230    2.8410 c         1 MOL      0.780473
    155 O22        -6.4840    2.5100    3.9220 o         1 MOL     -0.745169
    156 O23        -4.8880    3.4180    2.8130 o         1 MOL     -0.745169
    157 H67        -9.3820    3.4140    0.7600 hn        1 MOL      0.340573
    158 H68        -7.2020    3.2670   -0.8800 h1        1 MOL      0.067917
    159 H69        -7.9190    4.8950    1.5880 hc        1 MOL      0.031578
    160 H70        -6.1980    4.7930    0.8260 hc        1 MOL      0.031578
    161 H71        -6.6220    2.3270    0.8750 hc        1 MOL     -0.085406
    162 H72        -7.9660    2.6430    1.9880 hc        1 MOL     -0.085406
    163 N14        -7.4630    5.2330   -2.6580 n         1 MOL     -0.237658
    164 C55        -6.8580    4.1330   -3.4570 c3        1 MOL     -0.281390
    165 H73        -6.1360    3.5950   -2.8440 h1        1 MOL      0.118842
    166 H74        -7.6400    3.4480   -3.7820 h1        1 MOL      0.118842
    167 H75        -6.3550    4.5510   -4.3280 h1        1 MOL      0.118842
    168 H76        -7.7100    6.1140   -3.0750 hn        1 MOL      0.238648
    169 Ca1         5.9730    0.2830   -1.5230 Ca        1 MOL      1.683712
    170 O24         4.9820    1.2790   -4.1350 oh        1 MOL     -0.803506
    171 H77         4.1460    1.6270   -4.4420 ho        1 MOL      0.398166
    172 H78         5.0770    0.4410   -4.5940 ho        1 MOL      0.398166
    173 O25         6.5970   -1.2910   -3.5570 oh        1 MOL     -0.803506
    174 H79         6.3600   -2.1980   -3.7380 ho        1 MOL      0.398166
    175 H80         7.0410   -1.0030   -4.3530 ho        1 MOL      0.398166
    176 O26         4.2570    1.9980   -0.5880 oh        1 MOL     -0.803506
    177 H81         3.3140    1.8250   -0.5120 ho        1 MOL      0.398166
    178 H82         4.5270    2.2440    0.3050 ho        1 MOL      0.398166
    179 O27         3.5850   -0.6790   -1.9500 oh        1 MOL     -0.803506
    180 H83         3.1320   -1.0930   -2.6870 ho        1 MOL      0.398166
    181 H84         2.9670   -0.7290   -1.2190 ho        1 MOL      0.398166
@<TRIPOS>BOND
     1    1    2 1   
     2    1    4 1   
     3    1    5 1   
     4    1    6 1   
     5    2    3 2   
     6    2    7 1   
     7    7    8 1   
     8    7   15 1   
     9    8    9 1   
    10    8   11 1   
    11    8   16 1   
    12    9   10 2   
    13    9   19 1   
    14   11   12 1   
    15   11   17 1   
    16   11   18 1   
    17   12   13 1   
    18   12   14 1   
    19   19   20 1   
    20   19   24 1   
    21   20   21 1   
    22   20   23 1   
    23   20   25 1   
    24   21   22 2   
    25   21   29 1   
    26   23   26 1   
    27   23   27 1   
    28   23   28 1   
    29   29   30 1   
    30   29   37 1   
    31   30   31 1   
    32   30   33 1   
    33   30   38 1   
    34   31   32 2   
    35   31   41 1   
    36   33   34 1   
    37   33   39 1   
    38   33   40 1   
    39   34   35 1   
    40   34   36 1   
    41   41   42 1   
    42   41   45 1   
    43   42   43 1   
    44   42   46 1   
    45   42   47 1   
    46   43   44 2   
    47   43   48 1   
    48   48   49 1   
    49   48   56 1   
    50   49   50 1   
    51   49   52 1   
    52   49   57 1   
    53   50   51 2   
    54   50   62 1   
    55   52   53 1   
    56   52   58 1   
    57   52   59 1   
    58   53   54 1   
    59   53   55 2   
    60   54   60 1   
    61   54   61 1   
    62   62   63 1   
    63   62   66 1   
    64   63   64 1   
    65   63   67 1   
    66   63   68 1   
    67   64   65 2   
    68   64   69 1   
    69   69   70 1   
    70   69   76 1   
    71   70   71 1   
    72   70   73 1   
    73   70   77 1   
    74   71   72 2   
    75   71   83 1   
    76   73   74 1   
    77   73   75 1   
    78   73   78 1   
    79   74   80 1   
    80   74   81 1   
    81   74   82 1   
    82   75   79 1   
    83   83   84 1   
    84   83   91 1   
    85   84   85 1   
    86   84   87 1   
    87   84   92 1   
    88   85   86 2   
    89   85  102 1   
    90   87   88 1   
    91   87   89 1   
    92   87   93 1   
    93   88   90 1   
    94   88   94 1   
    95   88   95 1   
    96   89   96 1   
    97   89   97 1   
    98   89   98 1   
    99   90   99 1   
   100   90  100 1   
   101   90  101 1   
   102  102  103 1   
   103  102  110 1   
   104  103  104 1   
   105  103  106 1   
   106  103  111 1   
   107  104  105 2   
   108  104  114 1   
   109  106  107 1   
   110  106  112 1   
   111  106  113 1   
   112  107  108 1   
   113  107  109 1   
   114  114  115 1   
   115  114  125 1   
   116  115  116 1   
   117  115  118 1   
   118  115  126 1   
   119  116  117 2   
   120  116  134 1   
   121  118  119 1   
   122  118  127 1   
   123  118  128 1   
   124  119  120 ar  
   125  119  121 ar  
   126  120  122 ar  
   127  120  129 1   
   128  121  123 ar  
   129  121  130 1   
   130  122  124 ar  
   131  122  131 1   
   132  123  124 ar  
   133  123  132 1   
   134  124  133 1   
   135  134  135 1   
   136  134  140 1   
   137  135  136 1   
   138  135  138 1   
   139  135  141 1   
   140  136  137 2   
   141  136  148 1   
   142  138  139 1   
   143  138  142 1   
   144  138  143 1   
   145  139  140 1   
   146  139  144 1   
   147  139  145 1   
   148  140  146 1   
   149  140  147 1   
   150  148  149 1   
   151  148  157 1   
   152  149  150 1   
   153  149  152 1   
   154  149  158 1   
   155  150  151 2   
   156  150  163 1   
   157  152  153 1   
   158  152  159 1   
   159  152  160 1   
   160  153  154 1   
   161  153  161 1   
   162  153  162 1   
   163  154  155 1   
   164  154  156 1   
   165  163  164 1   
   166  163  168 1   
   167  164  165 1   
   168  164  166 1   
   169  164  167 1   
   170  170  171 1   
   171  170  172 1   
   172  173  174 1   
   173  173  175 1   
   174  176  177 1   
   175  176  178 1   
   176  179  180 1   
   177  179  181 1   
@<TRIPOS>SUBSTRUCTURE
     1 MOL         1 TEMP              0 ****  ****    0 ROOT
