@<TRIPOS>MOLECULE
MOL
  181   177     1     0     0
SMALL
resp


@<TRIPOS>ATOM
      1 C1          6.4540   -5.5360    4.9270 c3        1 MOL     -0.295608
      2 C2          5.8340   -4.4250    4.1170 c         1 MOL      0.636122
      3 O1          4.9020   -3.8000    4.5960 o         1 MOL     -0.546686
      4 H1          5.7420   -6.3560    5.0230 hc        1 MOL      0.069905
      5 H2          7.3530   -5.8940    4.4250 hc        1 MOL      0.069905
      6 H3          6.7150   -5.1620    5.9170 hc        1 MOL      0.069905
      7 N1          6.3380   -4.0570    2.8880 n         1 MOL     -0.495434
      8 C3          7.4870   -4.6860    2.1960 c3        1 MOL      0.312406
      9 C4          7.0750   -5.2970    0.7640 c         1 MOL      0.679554
     10 O2          5.9710   -5.7620    0.6070 o         1 MOL     -0.544727
     11 C5          8.7010   -3.7090    2.2000 c3        1 MOL     -0.274885
     12 C6          8.3570   -2.3710    1.5320 c         1 MOL      0.759488
     13 O3          8.0080   -2.3580    0.3100 o         1 MOL     -0.750986
     14 O4          8.3180   -1.3020    2.2490 o         1 MOL     -0.750986
     15 H4          5.7990   -3.2650    2.5360 hn        1 MOL      0.310421
     16 H5          7.7010   -5.6300    2.6950 h1        1 MOL     -0.027264
     17 H6          9.4930   -4.1200    1.5730 hc        1 MOL      0.028698
     18 H7          9.1090   -3.6210    3.2050 hc        1 MOL      0.028698
     19 N2          8.0080   -5.3330   -0.1490 n         1 MOL     -0.832114
     20 C7          7.7190   -5.5810   -1.5680 c3        1 MOL      0.635564
     21 C8          6.5610   -4.7700   -2.1940 c         1 MOL      0.249141
     22 O5          5.9480   -5.2660   -3.1160 o         1 MOL     -0.502274
     23 C9          7.6340   -7.1000   -1.7890 c3        1 MOL     -0.505024
     24 H8          8.8920   -4.8900    0.0750 hn        1 MOL      0.350765
     25 H9          8.5420   -5.2740   -2.2150 h1        1 MOL     -0.062726
     26 H10         7.7620   -7.2470   -2.8580 hc        1 MOL      0.122796
     27 H11         8.3810   -7.6400   -1.2120 hc        1 MOL      0.122796
     28 H12         6.5980   -7.3720   -1.5600 hc        1 MOL      0.122796
     29 N3          6.1980   -3.5830   -1.6110 n         1 MOL     -0.018013
     30 C10         5.2010   -2.6210   -2.1590 c3        1 MOL      0.017984
     31 C11         5.8940   -1.2910   -2.5760 c         1 MOL      0.394629
     32 O6          7.0210   -1.0160   -2.2080 o         1 MOL     -0.506252
     33 C12         4.1140   -2.4050   -1.1060 c3        1 MOL     -0.150550
     34 C13         4.5290   -2.0770    0.3770 c         1 MOL      0.658274
     35 O7          5.2900   -1.0970    0.4640 o         1 MOL     -0.640209
     36 O8          4.0970   -2.7560    1.3100 o         1 MOL     -0.640209
     37 H13         6.7370   -3.2070   -0.8520 hn        1 MOL     -0.003227
     38 H14         4.8570   -2.9910   -3.1290 h1        1 MOL      0.051457
     39 H15         3.5470   -3.3390   -1.0920 hc        1 MOL      0.054350
     40 H16         3.3290   -1.7000   -1.3840 hc        1 MOL      0.054350
     41 N4          5.1210   -0.3650   -3.2470 n         1 MOL     -0.347846
     42 C14         5.4560    1.0520   -3.4380 c3        1 MOL     -0.188625
     43 C15         5.3120    1.9880   -2.2220 c         1 MOL      0.868334
     44 O9          5.5910    1.6070   -1.1000 o         1 MOL     -0.713865
     45 H17         4.2340   -0.6990   -3.5790 hn        1 MOL      0.289646
     46 H18         4.8610    1.4190   -4.2760 h1        1 MOL      0.104421
     47 H19         6.4800    1.1950   -3.7610 h1        1 MOL      0.104421
     48 N5          4.9270    3.1900   -2.4780 n         1 MOL     -0.766424
     49 C16         4.7930    4.3560   -1.4970 c3        1 MOL      0.050416
     50 C17         3.4200    4.5250   -0.9780 c         1 MOL      0.952823
     51 O10         2.4780    4.3010   -1.6930 o         1 MOL     -0.546653
     52 C18         5.2330    5.6740   -2.1520 c3        1 MOL     -0.522632
     53 C19         6.5470    5.5390   -2.7580 c         1 MOL      0.818291
     54 N6          7.5190    5.2720   -1.9180 n         1 MOL     -0.741526
     55 O11         6.7280    5.6560   -3.9670 o         1 MOL     -0.575280
     56 H20         4.7580    3.4020   -3.4520 hn        1 MOL      0.377443
     57 H21         5.4180    4.2160   -0.6110 h1        1 MOL      0.034960
     58 H22         5.2080    6.4550   -1.3920 hc        1 MOL      0.171063
     59 H23         4.4940    5.9110   -2.9160 hc        1 MOL      0.171063
     60 H24         7.2910    5.2250   -0.9350 hn        1 MOL      0.296604
     61 H25         8.4530    5.0440   -2.2410 hn        1 MOL      0.296604
     62 N7          3.2160    4.9620    0.2640 n         1 MOL     -0.886281
     63 C20         1.8830    5.2730    0.8860 c3        1 MOL      0.438331
     64 C21         1.3370    6.6390    0.6050 c         1 MOL      0.377232
     65 O12         1.9240    7.4010   -0.1860 o         1 MOL     -0.563081
     66 H26         4.0570    5.0460    0.8160 hn        1 MOL      0.363861
     67 H27         1.9310    5.0950    1.9530 h1        1 MOL     -0.024374
     68 H28         1.1450    4.5530    0.5170 h1        1 MOL     -0.024374
     69 N8          0.1290    6.9430    0.9370 n         1 MOL     -0.331394
     70 C22        -0.8520    6.1100    1.6370 c3        1 MOL     -0.144585
     71 C23        -1.5660    5.0180    0.7440 c         1 MOL      0.547520
     72 O13        -2.1650    5.3580   -0.2890 o         1 MOL     -0.534500
     73 C24        -1.8890    6.9650    2.3030 c3        1 MOL      0.280020
     74 C25        -2.9270    6.1570    3.1150 c3        1 MOL     -0.272403
     75 O14        -1.2240    7.7280    3.3490 oh        1 MOL     -0.652511
     76 H29        -0.1810    7.7680    0.4480 hn        1 MOL      0.312687
     77 H30        -0.3190    5.5620    2.4110 h1        1 MOL      0.094333
     78 H31        -2.3860    7.6240    1.5920 h1        1 MOL      0.056333
     79 H32        -1.7940    7.6600    4.1110 ho        1 MOL      0.387164
     80 H33        -3.6350    6.8310    3.6080 hc        1 MOL      0.084858
     81 H34        -3.5830    5.5720    2.4680 hc        1 MOL      0.084858
     82 H35        -2.3520    5.5150    3.7760 hc        1 MOL      0.084858
     83 N9         -1.5360    3.7990    1.2920 n         1 MOL     -0.296124
     84 C26        -2.2590    2.6530    0.7430 c3        1 MOL      0.071887
     85 C27        -3.2580    2.0750    1.7660 c         1 MOL      0.492059
     86 O15        -2.8310    1.8990    2.8600 o         1 MOL     -0.599582
     87 C28        -1.3960    1.5660    0.0950 c3        1 MOL      0.133720
     88 C29        -0.4240    0.8910    1.1550 c3        1 MOL     -0.232516
     89 C30        -0.5420    2.0610   -1.0420 c3        1 MOL     -0.169694
     90 C31         0.0440   -0.4850    0.7460 c3        1 MOL     -0.009044
     91 H36        -0.9500    3.6470    2.0920 hn        1 MOL      0.215479
     92 H37        -2.9650    3.0130   -0.0070 h1        1 MOL      0.028947
     93 H38        -2.0820    0.8010   -0.2810 hc        1 MOL     -0.008226
     94 H39        -0.8640    0.7440    2.1390 hc        1 MOL      0.058877
     95 H40         0.2670    1.6840    1.4350 hc        1 MOL      0.058877
     96 H41        -0.2330    1.2940   -1.7500 hc        1 MOL      0.039548
     97 H42        -1.0080    2.8990   -1.5690 hc        1 MOL      0.039548
     98 H43         0.3770    2.4800   -0.6300 hc        1 MOL      0.039548
     99 H44         0.5960   -0.4720   -0.1930 hc        1 MOL      0.023170
    100 H45         0.8080   -0.8320    1.4460 hc        1 MOL      0.023170
    101 H46        -0.7900   -1.1930    0.6810 hc        1 MOL      0.023170
    102 N10        -4.4950    1.7890    1.5140 n         1 MOL     -0.383071
    103 C32        -5.3020    2.0570    0.3350 c3        1 MOL      0.308920
    104 C33        -6.5000    1.0570    0.3640 c         1 MOL      0.482107
    105 O16        -6.8990    0.4550    1.3840 o         1 MOL     -0.511327
    106 C34        -5.7000    3.5810    0.3400 c3        1 MOL     -0.236593
    107 C35        -6.3940    4.0950    1.5900 c         1 MOL      0.691231
    108 O17        -6.7020    5.3160    1.7270 o         1 MOL     -0.670881
    109 O18        -6.7300    3.2670    2.4870 o         1 MOL     -0.670881
    110 H47        -5.0300    1.4760    2.3160 hn        1 MOL      0.287408
    111 H48        -4.7800    1.7980   -0.5940 h1        1 MOL     -0.002982
    112 H49        -6.3230    3.7150   -0.5540 hc        1 MOL      0.017503
    113 H50        -4.8020    4.1460    0.0940 hc        1 MOL      0.017503
    114 N11        -7.1550    0.8800   -0.7810 n         1 MOL     -0.508203
    115 C36        -8.1290   -0.1560   -1.0400 c3        1 MOL      0.435115
    116 C37        -7.6840   -0.9300   -2.2510 c         1 MOL      0.328974
    117 O19        -7.3050   -0.3320   -3.2710 o         1 MOL     -0.519247
    118 C38        -9.4340    0.7140   -1.1910 c3        1 MOL     -0.378356
    119 C39       -10.6650   -0.0980   -1.0950 ca        1 MOL      0.220936
    120 C40       -11.1430   -0.9180   -2.1530 ca        1 MOL     -0.194094
    121 C41       -11.5290    0.1290   -0.0120 ca        1 MOL     -0.194094
    122 C42       -12.3350   -1.6320   -2.0100 ca        1 MOL     -0.124054
    123 C43       -12.8040   -0.4880    0.0310 ca        1 MOL     -0.124054
    124 C44       -13.1810   -1.3920   -0.9970 ca        1 MOL     -0.136398
    125 H51        -6.7810    1.4090   -1.5600 hn        1 MOL      0.268116
    126 H52        -8.2650   -0.8290   -0.2000 h1        1 MOL     -0.018021
    127 H53        -9.4020    1.3470   -2.0840 hc        1 MOL      0.115306
    128 H54        -9.4180    1.3560   -0.3080 hc        1 MOL      0.115306
    129 H55       -10.4900   -1.0780   -2.9950 ha        1 MOL      0.129575
    130 H56       -11.1590    0.8870    0.6560 ha        1 MOL      0.129575
    131 H57       -12.5390   -2.3950   -2.7470 ha        1 MOL      0.108537
    132 H58       -13.3630   -0.2490    0.9300 ha        1 MOL      0.108537
    133 H59       -14.0810   -1.9890   -1.0180 ha        1 MOL      0.097053
    134 N12        -7.9520   -2.2770   -2.2530 n         1 MOL     -0.050120
    135 C45        -8.6510   -3.0930   -1.2380 c3        1 MOL     -0.073044
    136 C46        -7.8260   -3.3040    0.0410 c         1 MOL      0.470754
    137 O20        -8.3820   -3.3930    1.1130 o         1 MOL     -0.574710
    138 C47        -8.8870   -4.4400   -1.9170 c3        1 MOL     -0.026102
    139 C48        -8.8190   -4.1370   -3.4140 c3        1 MOL     -0.135861
    140 C49        -7.7450   -3.0850   -3.4410 c3        1 MOL     -0.116053
    141 H60        -9.6670   -2.7730   -1.0370 h1        1 MOL      0.082026
    142 H61        -7.9980   -5.0560   -1.7520 hc        1 MOL      0.059719
    143 H62        -9.7380   -4.9860   -1.5130 hc        1 MOL      0.059719
    144 H63        -8.5580   -5.0550   -3.9400 hc        1 MOL      0.032646
    145 H64        -9.7550   -3.7160   -3.7940 hc        1 MOL      0.032646
    146 H65        -6.7580   -3.5490   -3.3740 h1        1 MOL      0.102515
    147 H66        -7.7490   -2.5200   -4.3760 h1        1 MOL      0.102515
    148 N13        -6.5700   -3.4130   -0.0120 n         1 MOL     -0.320503
    149 C50        -5.7350   -3.6700    1.1890 c3        1 MOL      0.133280
    150 C51        -6.1260   -4.9330    1.9630 c         1 MOL      0.507024
    151 O21        -5.9890   -6.0720    1.4560 o         1 MOL     -0.587948
    152 C52        -4.2430   -3.6460    0.8610 c3        1 MOL     -0.154804
    153 C53        -3.6880   -2.3350    0.2310 c3        1 MOL      0.069851
    154 C54        -3.7720   -2.3580   -1.3880 c         1 MOL      0.564310
    155 O22        -4.7720   -2.9180   -1.9220 o         1 MOL     -0.640859
    156 O23        -2.9870   -1.7000   -2.1540 o         1 MOL     -0.640859
    157 H67        -6.1100   -3.3110   -0.8960 hn        1 MOL      0.228922
    158 H68        -5.8740   -2.8830    1.9230 h1        1 MOL      0.072370
    159 H69        -3.9440   -4.5480    0.3290 hc        1 MOL      0.051675
    160 H70        -3.8270   -3.7250    1.8660 hc        1 MOL      0.051675
    161 H71        -2.6540   -2.3750    0.5550 hc        1 MOL     -0.038225
    162 H72        -4.1550   -1.4100    0.5630 hc        1 MOL     -0.038225
    163 N14        -6.5720   -4.9220    3.2440 n         1 MOL     -0.461144
    164 C55        -7.1120   -3.7290    3.9820 c3        1 MOL     -0.058431
    165 H73        -7.8690   -3.2360    3.3710 h1        1 MOL      0.059708
    166 H74        -7.5590   -4.0540    4.9220 h1        1 MOL      0.059708
    167 H75        -6.3010   -3.0310    4.1870 h1        1 MOL      0.059708
    168 H76        -6.8070   -5.7880    3.7070 hn        1 MOL      0.297703
    169 Ca1         7.5070    0.2060    0.0530 Ca        1 MOL      1.743363
    170 O24         6.1450    1.0390    2.1870 oh        1 MOL     -0.813500
    171 H77         5.6380    0.2460    2.3440 ho        1 MOL      0.392771
    172 H78         5.7010    1.7230    2.6810 ho        1 MOL      0.392771
    173 O25        10.2610    0.4040    0.6620 oh        1 MOL     -0.813500
    174 H79        10.3690   -0.3910    1.1810 ho        1 MOL      0.392771
    175 H80        10.9810    0.9780    0.9350 ho        1 MOL      0.392771
    176 O26         8.2280    2.6220    0.8450 oh        1 MOL     -0.813500
    177 H81         7.6460    3.3800    0.8530 ho        1 MOL      0.392771
    178 H82         9.0890    2.9860    0.6180 ho        1 MOL      0.392771
    179 O27         8.7430    1.3750   -1.9590 oh        1 MOL     -0.813500
    180 H83         9.5690    0.9920   -2.2340 ho        1 MOL      0.392771
    181 H84         8.8380    2.3110   -2.1310 ho        1 MOL      0.392771
@<TRIPOS>BOND
     1    1    2 1   
     2    1    4 1   
     3    1    5 1   
     4    1    6 1   
     5    2    3 2   
     6    2    7 1   
     7    7    8 1   
     8    7   15 1   
     9    8    9 1   
    10    8   11 1   
    11    8   16 1   
    12    9   10 2   
    13    9   19 1   
    14   11   12 1   
    15   11   17 1   
    16   11   18 1   
    17   12   13 1   
    18   12   14 1   
    19   19   20 1   
    20   19   24 1   
    21   20   21 1   
    22   20   23 1   
    23   20   25 1   
    24   21   22 2   
    25   21   29 1   
    26   23   26 1   
    27   23   27 1   
    28   23   28 1   
    29   29   30 1   
    30   29   37 1   
    31   30   31 1   
    32   30   33 1   
    33   30   38 1   
    34   31   32 2   
    35   31   41 1   
    36   33   34 1   
    37   33   39 1   
    38   33   40 1   
    39   34   35 1   
    40   34   36 1   
    41   41   42 1   
    42   41   45 1   
    43   42   43 1   
    44   42   46 1   
    45   42   47 1   
    46   43   44 2   
    47   43   48 1   
    48   48   49 1   
    49   48   56 1   
    50   49   50 1   
    51   49   52 1   
    52   49   57 1   
    53   50   51 2   
    54   50   62 1   
    55   52   53 1   
    56   52   58 1   
    57   52   59 1   
    58   53   54 1   
    59   53   55 2   
    60   54   60 1   
    61   54   61 1   
    62   62   63 1   
    63   62   66 1   
    64   63   64 1   
    65   63   67 1   
    66   63   68 1   
    67   64   65 2   
    68   64   69 1   
    69   69   70 1   
    70   69   76 1   
    71   70   71 1   
    72   70   73 1   
    73   70   77 1   
    74   71   72 2   
    75   71   83 1   
    76   73   74 1   
    77   73   75 1   
    78   73   78 1   
    79   74   80 1   
    80   74   81 1   
    81   74   82 1   
    82   75   79 1   
    83   83   84 1   
    84   83   91 1   
    85   84   85 1   
    86   84   87 1   
    87   84   92 1   
    88   85   86 2   
    89   85  102 1   
    90   87   88 1   
    91   87   89 1   
    92   87   93 1   
    93   88   90 1   
    94   88   94 1   
    95   88   95 1   
    96   89   96 1   
    97   89   97 1   
    98   89   98 1   
    99   90   99 1   
   100   90  100 1   
   101   90  101 1   
   102  102  103 1   
   103  102  110 1   
   104  103  104 1   
   105  103  106 1   
   106  103  111 1   
   107  104  105 2   
   108  104  114 1   
   109  106  107 1   
   110  106  112 1   
   111  106  113 1   
   112  107  108 1   
   113  107  109 1   
   114  114  115 1   
   115  114  125 1   
   116  115  116 1   
   117  115  118 1   
   118  115  126 1   
   119  116  117 2   
   120  116  134 1   
   121  118  119 1   
   122  118  127 1   
   123  118  128 1   
   124  119  120 ar  
   125  119  121 ar  
   126  120  122 ar  
   127  120  129 1   
   128  121  123 ar  
   129  121  130 1   
   130  122  124 ar  
   131  122  131 1   
   132  123  124 ar  
   133  123  132 1   
   134  124  133 1   
   135  134  135 1   
   136  134  140 1   
   137  135  136 1   
   138  135  138 1   
   139  135  141 1   
   140  136  137 2   
   141  136  148 1   
   142  138  139 1   
   143  138  142 1   
   144  138  143 1   
   145  139  140 1   
   146  139  144 1   
   147  139  145 1   
   148  140  146 1   
   149  140  147 1   
   150  148  149 1   
   151  148  157 1   
   152  149  150 1   
   153  149  152 1   
   154  149  158 1   
   155  150  151 2   
   156  150  163 1   
   157  152  153 1   
   158  152  159 1   
   159  152  160 1   
   160  153  154 1   
   161  153  161 1   
   162  153  162 1   
   163  154  155 1   
   164  154  156 1   
   165  163  164 1   
   166  163  168 1   
   167  164  165 1   
   168  164  166 1   
   169  164  167 1   
   170  170  171 1   
   171  170  172 1   
   172  173  174 1   
   173  173  175 1   
   174  176  177 1   
   175  176  178 1   
   176  179  180 1   
   177  179  181 1   
@<TRIPOS>SUBSTRUCTURE
     1 MOL         1 TEMP              0 ****  ****    0 ROOT
