@<TRIPOS>MOLECULE
MOL
  192   187     1     0     0
SMALL
resp


@<TRIPOS>ATOM
      1 C1          5.6290    2.2800    5.8220 c3        1 MOL     -0.258145
      2 C2          5.1810    1.9570    4.3840 c         1 MOL      0.845757
      3 O1          4.6020    2.7650    3.7020 o         1 MOL     -0.642045
      4 H1          5.5030    1.3970    6.4490 hc        1 MOL      0.059577
      5 H2          6.6790    2.5750    5.8190 hc        1 MOL      0.059577
      6 H3          5.0220    3.0950    6.2180 hc        1 MOL      0.059577
      7 N1          5.3400    0.7110    3.9260 n         1 MOL     -0.889967
      8 C3          5.1200    0.2280    2.5440 c3        1 MOL      0.844904
      9 C4          3.6210    0.3280    2.0560 c         1 MOL     -0.417647
     10 O2          3.3100    0.0350    0.8600 o         1 MOL      0.002407
     11 C5          5.6000   -1.2110    2.4260 c3        1 MOL     -0.408098
     12 C6          6.9000   -1.4890    3.0260 c         1 MOL      0.766502
     13 O3          7.8250   -1.8170    2.2280 o         1 MOL     -0.714039
     14 O4          7.1720   -1.3050    4.2030 o         1 MOL     -0.714039
     15 H4          6.0080    0.1550    4.4350 hn        1 MOL      0.360051
     16 H5          5.7000    0.8930    1.9020 h1        1 MOL     -0.030685
     17 H6          5.6200   -1.2300    1.3380 hc        1 MOL      0.031086
     18 H7          4.8160   -1.8680    2.7800 hc        1 MOL      0.031086
     19 N2          2.7190    0.7170    2.9160 n         1 MOL     -0.044973
     20 C7          1.2550    0.4690    2.7060 c3        1 MOL      0.116260
     21 C8          0.4280    1.8140    2.5690 c         1 MOL      0.336604
     22 O5          0.6620    2.7430    3.3870 o         1 MOL     -0.496580
     23 C9          0.8080   -0.4430    3.8560 c3        1 MOL     -0.345414
     24 C10         1.2750   -1.8600    3.5160 c3        1 MOL     -0.233218
     25 C11         0.6710   -2.9150    4.5120 c3        1 MOL      0.114364
     26 C12         1.3910   -4.2060    4.3230 c3        1 MOL      0.131518
     27 N3          0.6300   -5.3400    5.0190 n4        1 MOL     -0.529707
     28 H8          3.0290    1.0370    3.8180 hn        1 MOL      0.234483
     29 H9          1.1320   -0.0420    1.7570 h1        1 MOL      0.260351
     30 H10        -0.2820   -0.4810    3.8160 hc        1 MOL      0.122225
     31 H11         1.1170   -0.1120    4.8390 hc        1 MOL      0.122225
     32 H12         2.3650   -1.8710    3.5740 hc        1 MOL      0.160963
     33 H13         0.9820   -2.0980    2.4920 hc        1 MOL      0.160963
     34 H14        -0.4190   -3.0200    4.4610 hc        1 MOL      0.006275
     35 H15         0.9510   -2.6720    5.5330 hc        1 MOL      0.006275
     36 H16         2.3810   -3.9210    4.6770 hx        1 MOL      0.048683
     37 H17         1.4870   -4.4150    3.2570 hx        1 MOL      0.048683
     38 H18         0.7240   -5.3190    6.0290 hn        1 MOL      0.363734
     39 H19        -0.3380   -5.4090    4.7580 hn        1 MOL      0.363734
     40 H20         0.9870   -6.2260    4.7030 hn        1 MOL      0.363734
     41 N4         -0.4050    2.0400    1.5590 n         1 MOL     -0.008453
     42 C13        -1.0170    1.0380    0.5490 c3        1 MOL     -0.382122
     43 C14        -1.4280   -0.3280    1.1340 c         1 MOL      0.446141
     44 O6         -0.7500   -1.3970    0.9020 o         1 MOL     -0.576164
     45 C15        -0.1310    0.9600   -0.7530 c3        1 MOL     -1.181118
     46 C16        -0.2580    2.2200   -1.6590 c         1 MOL      0.926590
     47 O7          0.3070    2.3290   -2.7300 o         1 MOL     -0.744155
     48 O8         -1.0790    3.1210   -1.3370 o         1 MOL     -0.744155
     49 H21        -0.7870    2.9770    1.4680 hn        1 MOL      0.100347
     50 H22        -1.9640    1.3770    0.1290 h1        1 MOL      0.203111
     51 H23        -0.5180    0.2330   -1.4600 hc        1 MOL      0.416393
     52 H24         0.9140    0.7100   -0.6130 hc        1 MOL      0.416393
     53 N5         -2.4910   -0.4750    1.8650 n         1 MOL     -0.212660
     54 C17        -3.6230    0.4460    2.0850 c3        1 MOL     -0.148785
     55 C18        -4.6940   -0.0450    3.0570 c         1 MOL      0.572678
     56 O9         -4.5060   -1.0810    3.6360 o         1 MOL     -0.527321
     57 H25        -2.6720   -1.4380    2.1340 hn        1 MOL      0.225581
     58 H26        -4.0200    0.6610    1.0940 h1        1 MOL      0.096677
     59 H27        -3.2910    1.4160    2.4600 h1        1 MOL      0.096677
     60 N6         -5.7040    0.8100    3.4030 n         1 MOL     -0.491324
     61 C19        -6.0910    1.9410    2.5890 c3        1 MOL      0.036113
     62 C20        -6.7770    1.5230    1.2630 c         1 MOL      0.476940
     63 O10        -7.5090    0.5180    1.2730 o         1 MOL     -0.457908
     64 C21        -6.9410    2.9560    3.3210 c3        1 MOL     -0.056269
     65 C22        -7.9500    2.5570    4.3700 c         1 MOL      0.702829
     66 O11        -8.9290    3.2860    4.5850 o         1 MOL     -0.667040
     67 O12        -7.7530    1.5340    5.0580 o         1 MOL     -0.667040
     68 H28        -6.3890    0.3580    3.9880 hn        1 MOL      0.321771
     69 H29        -5.2790    2.6310    2.3590 h1        1 MOL      0.032795
     70 H30        -7.3470    3.6570    2.5910 hc        1 MOL     -0.002416
     71 H31        -6.2290    3.5550    3.8980 hc        1 MOL     -0.002416
     72 N7         -6.6170    2.4150    0.2320 n         1 MOL     -0.159128
     73 C23        -7.4290    2.3410   -1.0160 c3        1 MOL     -0.373012
     74 C24        -7.3450    0.9750   -1.7340 c         1 MOL      0.477498
     75 O13        -8.4080    0.4180   -2.1290 o         1 MOL     -0.508781
     76 H32        -5.9430    3.1500    0.4010 hn        1 MOL      0.155968
     77 H33        -7.0880    3.0740   -1.7510 h1        1 MOL      0.163233
     78 H34        -8.4900    2.5380   -0.8990 h1        1 MOL      0.163233
     79 N8         -6.0980    0.4870   -1.7430 n         1 MOL     -0.215297
     80 C25        -5.8580   -0.8840   -2.2230 c3        1 MOL     -0.254436
     81 C26        -4.7180   -1.4400   -1.3630 c         1 MOL      0.355347
     82 O14        -3.8020   -0.7110   -0.9550 o         1 MOL     -0.211202
     83 C27        -5.4580   -0.9160   -3.7530 c3        1 MOL      0.244308
     84 C28        -4.4930    0.1720   -4.1490 c3        1 MOL     -0.106642
     85 O15        -6.5120   -0.9330   -4.6700 oh        1 MOL     -0.607740
     86 H35        -5.3570    1.0580   -1.3550 hn        1 MOL      0.156588
     87 H36        -6.7800   -1.4550   -2.1180 h1        1 MOL      0.167546
     88 H37        -4.9760   -1.8910   -3.8380 h1        1 MOL      0.133798
     89 H38        -7.0940   -0.1970   -4.4680 ho        1 MOL      0.399189
     90 H39        -4.8980    1.1820   -4.1010 hc        1 MOL      0.026056
     91 H40        -3.6240    0.1710   -3.4890 hc        1 MOL      0.026056
     92 H41        -4.1090   -0.0160   -5.1540 hc        1 MOL      0.026056
     93 N9         -4.7510   -2.8250   -1.0990 n         1 MOL     -0.277226
     94 C29        -3.7640   -3.4740   -0.1490 c3        1 MOL     -0.328484
     95 C30        -2.5640   -4.0210   -0.8590 c         1 MOL      0.469579
     96 O16        -1.8780   -4.8600   -0.3700 o         1 MOL     -0.525486
     97 C31        -4.5390   -4.5240    0.6370 c3        1 MOL      0.140823
     98 C32        -5.2660   -5.5570   -0.3390 c3        1 MOL      0.071265
     99 C33        -5.6490   -3.7520    1.4670 c3        1 MOL     -0.304837
    100 C34        -5.7140   -6.8410    0.4270 c3        1 MOL     -0.151912
    101 H42        -5.4540   -3.4300   -1.5060 hn        1 MOL      0.256058
    102 H43        -3.4320   -2.7580    0.6010 h1        1 MOL      0.238621
    103 H44        -3.8580   -4.9320    1.3800 hc        1 MOL      0.030363
    104 H45        -4.5450   -5.8620   -1.0950 hc        1 MOL      0.006946
    105 H46        -6.0970   -5.0550   -0.8390 hc        1 MOL      0.006946
    106 H47        -6.1490   -4.4060    2.1770 hc        1 MOL      0.082192
    107 H48        -5.2640   -2.9180    2.0640 hc        1 MOL      0.082192
    108 H49        -6.4610   -3.3820    0.8390 hc        1 MOL      0.082192
    109 H50        -6.5610   -6.5760    1.0650 hc        1 MOL      0.037278
    110 H51        -6.0090   -7.6640   -0.2320 hc        1 MOL      0.037278
    111 H52        -4.8880   -7.1700    1.0620 hc        1 MOL      0.037278
    112 N10        -2.2770   -3.5440   -2.1150 n         1 MOL     -0.030225
    113 C35        -1.2220   -3.8590   -3.0950 c3        1 MOL     -0.122187
    114 C36         0.2170   -3.8000   -2.5870 c         1 MOL      0.438739
    115 O17         1.0620   -4.4890   -3.1320 o         1 MOL     -0.541061
    116 C37        -1.3580   -3.0050   -4.3430 c3        1 MOL      0.157189
    117 C38        -1.1630   -1.5290   -4.0310 c3        1 MOL     -0.145575
    118 O18        -2.6720   -3.0710   -4.8950 oh        1 MOL     -0.578782
    119 H53        -2.9360   -2.8490   -2.4400 hn        1 MOL     -0.070992
    120 H54        -1.2920   -4.8930   -3.4010 h1        1 MOL      0.088359
    121 H55        -0.6090   -3.2860   -5.0800 h1        1 MOL      0.076708
    122 H56        -2.8010   -3.9000   -5.3570 ho        1 MOL      0.392958
    123 H57        -1.8020   -1.2730   -3.1800 hc        1 MOL      0.077109
    124 H58        -0.1420   -1.3220   -3.7360 hc        1 MOL      0.077109
    125 H59        -1.3870   -0.9720   -4.9300 hc        1 MOL      0.077109
    126 N11         0.5090   -3.0440   -1.5240 n         1 MOL     -0.089989
    127 C39         1.8490   -2.5970   -1.0700 c3        1 MOL      0.045046
    128 C40         2.7640   -1.9270   -2.1320 c         1 MOL      0.332250
    129 O19         2.6350   -2.2280   -3.3160 o         1 MOL     -0.469505
    130 C41         2.6720   -3.6740   -0.3840 c3        1 MOL      0.428626
    131 C42         1.8650   -4.5960    0.5110 c3        1 MOL     -0.366182
    132 O20         3.7080   -3.2320    0.5230 oh        1 MOL     -0.683078
    133 H60        -0.2580   -2.5880   -1.0600 hn        1 MOL      0.153910
    134 H61         1.6980   -1.8300   -0.3090 h1        1 MOL     -0.161898
    135 H62         3.1710   -4.2670   -1.1430 h1        1 MOL     -0.013506
    136 H63         4.3120   -3.9790    0.5850 ho        1 MOL      0.399732
    137 H64         1.1530   -5.1300   -0.1220 hc        1 MOL      0.072326
    138 H65         2.5530   -5.3350    0.9330 hc        1 MOL      0.072326
    139 H66         1.3090   -4.1060    1.3040 hc        1 MOL      0.072326
    140 N12         3.7720   -1.1700   -1.6460 n         1 MOL     -0.204989
    141 C43         4.9480   -0.6170   -2.4110 c3        1 MOL     -0.029896
    142 C44         4.8870    0.9480   -2.3360 c         1 MOL      0.614394
    143 O21         5.4100    1.6710   -3.2170 o         1 MOL     -0.648886
    144 C45         6.2900   -1.2310   -1.9420 c3        1 MOL      0.001727
    145 C46         6.3480   -2.7720   -2.2120 c3        1 MOL     -0.245481
    146 C47         7.7760   -3.1900   -1.9360 c3        1 MOL      0.106686
    147 C48         7.9380   -4.6240   -2.5120 c3        1 MOL      0.106043
    148 N13         9.3560   -4.9880   -2.6030 n4        1 MOL     -0.362518
    149 H67         3.6520   -1.0110   -0.6510 hn        1 MOL      0.278561
    150 H68         4.8020   -1.0070   -3.4180 h1        1 MOL      0.060724
    151 H69         6.4230   -1.0730   -0.8710 hc        1 MOL      0.042140
    152 H70         7.0960   -0.6650   -2.3950 hc        1 MOL      0.042140
    153 H71         6.0390   -3.1250   -3.2020 hc        1 MOL      0.090773
    154 H72         5.6700   -3.2150   -1.4880 hc        1 MOL      0.090773
    155 H73         8.0760   -3.2020   -0.8920 hc        1 MOL      0.012868
    156 H74         8.5540   -2.5990   -2.4260 hc        1 MOL      0.012868
    157 H75         7.4650   -4.6100   -3.4870 hx        1 MOL      0.041360
    158 H76         7.4530   -5.3550   -1.8550 hx        1 MOL      0.041360
    159 H77         9.8880   -4.4780   -3.2940 hn        1 MOL      0.322403
    160 H78         9.7530   -5.0020   -1.6690 hn        1 MOL      0.322403
    161 H79         9.3920   -5.9250   -2.9600 hn        1 MOL      0.322403
    162 N14         4.2720    1.5230   -1.3020 n         1 MOL     -0.158570
    163 C49         4.1900    2.9470   -1.0240 c3        1 MOL      0.084584
    164 C50         5.6110    3.6020   -0.7840 c         1 MOL      0.196826
    165 O22         6.3560    3.2280    0.1310 o         1 MOL     -0.472578
    166 C51         3.2220    3.0740    0.1840 c3        1 MOL      0.263931
    167 C52         2.9010    4.5480    0.5890 c3        1 MOL     -0.546216
    168 C53         2.4680    5.4390   -0.5710 c         1 MOL      0.772325
    169 O23         3.3650    5.9930   -1.3420 o         1 MOL     -0.784236
    170 O24         1.2680    5.7040   -0.7540 o         1 MOL     -0.784236
    171 H80         3.7680    0.9330   -0.6610 hn        1 MOL     -0.232203
    172 H81         3.8660    3.4640   -1.9300 h1        1 MOL      0.056477
    173 H82         3.6750    2.6390    1.0770 hc        1 MOL      0.040187
    174 H83         2.2470    2.6180   -0.0310 hc        1 MOL      0.040187
    175 H84         3.8180    4.9430    1.0300 hc        1 MOL      0.158152
    176 H85         2.2400    4.7120    1.4450 hc        1 MOL      0.158152
    177 N15         5.9110    4.6410   -1.5880 n         1 MOL      0.028581
    178 C54         7.2080    5.4110   -1.5140 c3        1 MOL     -0.280429
    179 H86         7.3170    6.0260   -2.4080 h1        1 MOL      0.104525
    180 H87         7.2020    6.0510   -0.6330 h1        1 MOL      0.104525
    181 H88         8.0430    4.7130   -1.4500 h1        1 MOL      0.104525
    182 H89         5.3170    4.7510   -2.3980 hn        1 MOL      0.235100
    183 Ca1        -1.1300    5.7990   -1.3670 Ca        1 MOL      1.660782
    184 O25        -1.3840    7.1720   -3.7450 oh        1 MOL     -0.882642
    185 H90        -1.2190    6.6920   -4.5500 ho        1 MOL      0.440400
    186 H91        -1.2150    8.0900   -3.9780 ho        1 MOL      0.440400
    187 O26        -2.7170    4.7380   -3.2680 oh        1 MOL     -0.882642
    188 H92        -2.0900    4.1730   -3.7210 ho        1 MOL      0.440400
    189 H93        -3.5700    4.3580   -3.4770 ho        1 MOL      0.440400
    190 O27         0.5470    4.9690   -3.4700 oh        1 MOL     -0.882642
    191 H94         0.4280    4.0310   -3.3140 ho        1 MOL      0.440400
    192 H95         1.4420    5.1550   -3.1740 ho        1 MOL      0.440400
@<TRIPOS>BOND
     1    1    2 1   
     2    1    4 1   
     3    1    5 1   
     4    1    6 1   
     5    2    3 2   
     6    2    7 1   
     7    7    8 1   
     8    7   15 1   
     9    8    9 1   
    10    8   11 1   
    11    8   16 1   
    12    9   10 2   
    13    9   19 1   
    14   11   12 1   
    15   11   17 1   
    16   11   18 1   
    17   12   13 1   
    18   12   14 1   
    19   19   20 1   
    20   19   28 1   
    21   20   21 1   
    22   20   23 1   
    23   20   29 1   
    24   21   22 2   
    25   21   41 1   
    26   23   24 1   
    27   23   30 1   
    28   23   31 1   
    29   24   25 1   
    30   24   32 1   
    31   24   33 1   
    32   25   26 1   
    33   25   34 1   
    34   25   35 1   
    35   26   27 1   
    36   26   36 1   
    37   26   37 1   
    38   27   38 1   
    39   27   39 1   
    40   27   40 1   
    41   41   42 1   
    42   41   49 1   
    43   42   43 1   
    44   42   45 1   
    45   42   50 1   
    46   43   44 2   
    47   43   53 1   
    48   45   46 1   
    49   45   51 1   
    50   45   52 1   
    51   46   47 1   
    52   46   48 1   
    53   53   54 1   
    54   53   57 1   
    55   54   55 1   
    56   54   58 1   
    57   54   59 1   
    58   55   56 2   
    59   55   60 1   
    60   60   61 1   
    61   60   68 1   
    62   61   62 1   
    63   61   64 1   
    64   61   69 1   
    65   62   63 2   
    66   62   72 1   
    67   64   65 1   
    68   64   70 1   
    69   64   71 1   
    70   65   66 1   
    71   65   67 1   
    72   72   73 1   
    73   72   76 1   
    74   73   74 1   
    75   73   77 1   
    76   73   78 1   
    77   74   75 2   
    78   74   79 1   
    79   79   80 1   
    80   79   86 1   
    81   80   81 1   
    82   80   83 1   
    83   80   87 1   
    84   81   82 2   
    85   81   93 1   
    86   83   84 1   
    87   83   85 1   
    88   83   88 1   
    89   84   90 1   
    90   84   91 1   
    91   84   92 1   
    92   85   89 1   
    93   93   94 1   
    94   93  101 1   
    95   94   95 1   
    96   94   97 1   
    97   94  102 1   
    98   95   96 2   
    99   95  112 1   
   100   97   98 1   
   101   97   99 1   
   102   97  103 1   
   103   98  100 1   
   104   98  104 1   
   105   98  105 1   
   106   99  106 1   
   107   99  107 1   
   108   99  108 1   
   109  100  109 1   
   110  100  110 1   
   111  100  111 1   
   112  112  113 1   
   113  112  119 1   
   114  113  114 1   
   115  113  116 1   
   116  113  120 1   
   117  114  115 2   
   118  114  126 1   
   119  116  117 1   
   120  116  118 1   
   121  116  121 1   
   122  117  123 1   
   123  117  124 1   
   124  117  125 1   
   125  118  122 1   
   126  126  127 1   
   127  126  133 1   
   128  127  128 1   
   129  127  130 1   
   130  127  134 1   
   131  128  129 2   
   132  128  140 1   
   133  130  131 1   
   134  130  132 1   
   135  130  135 1   
   136  131  137 1   
   137  131  138 1   
   138  131  139 1   
   139  132  136 1   
   140  140  141 1   
   141  140  149 1   
   142  141  142 1   
   143  141  144 1   
   144  141  150 1   
   145  142  143 2   
   146  142  162 1   
   147  144  145 1   
   148  144  151 1   
   149  144  152 1   
   150  145  146 1   
   151  145  153 1   
   152  145  154 1   
   153  146  147 1   
   154  146  155 1   
   155  146  156 1   
   156  147  148 1   
   157  147  157 1   
   158  147  158 1   
   159  148  159 1   
   160  148  160 1   
   161  148  161 1   
   162  162  163 1   
   163  162  171 1   
   164  163  164 1   
   165  163  166 1   
   166  163  172 1   
   167  164  165 2   
   168  164  177 1   
   169  166  167 1   
   170  166  173 1   
   171  166  174 1   
   172  167  168 1   
   173  167  175 1   
   174  167  176 1   
   175  168  169 1   
   176  168  170 1   
   177  177  178 1   
   178  177  182 1   
   179  178  179 1   
   180  178  180 1   
   181  178  181 1   
   182  184  185 1   
   183  184  186 1   
   184  187  188 1   
   185  187  189 1   
   186  190  191 1   
   187  190  192 1   
@<TRIPOS>SUBSTRUCTURE
     1 MOL         1 TEMP              0 ****  ****    0 ROOT
