@<TRIPOS>MOLECULE
MOL
  192   187     1     0     0
SMALL
resp


@<TRIPOS>ATOM
      1 C1          4.2060    4.5140   -3.4850 c3        1 MOL     -0.331834
      2 C2          5.0040    3.7470   -2.4030 c         1 MOL      0.773448
      3 O1          4.4180    3.4300   -1.3620 o         1 MOL     -0.632755
      4 H1          4.1150    3.8940   -4.3770 hc        1 MOL      0.076353
      5 H2          3.2130    4.7520   -3.1050 hc        1 MOL      0.076353
      6 H3          4.7300    5.4370   -3.7370 hc        1 MOL      0.076353
      7 N1          6.1600    3.2310   -2.6910 n         1 MOL     -0.741069
      8 C3          6.8240    2.0120   -2.1260 c3        1 MOL      0.303138
      9 C4          5.8180    0.9090   -1.8830 c         1 MOL      0.403731
     10 O2          5.3260    0.6470   -0.7720 o         1 MOL     -0.556216
     11 C5          7.7630    2.5170   -0.9320 c3        1 MOL     -0.116573
     12 C6          7.2110    3.6320   -0.0340 c         1 MOL      0.719406
     13 O3          6.2370    3.3200    0.7500 o         1 MOL     -0.715192
     14 O4          7.8770    4.7250    0.1020 o         1 MOL     -0.715192
     15 H4          6.6520    3.6780   -3.4600 hn        1 MOL      0.323786
     16 H5          7.4930    1.5190   -2.8240 h1        1 MOL      0.006859
     17 H6          8.6580    2.8520   -1.4500 hc        1 MOL      0.009264
     18 H7          8.0130    1.6740   -0.2890 hc        1 MOL      0.009264
     19 N2          5.5840    0.1560   -2.9720 n         1 MOL     -0.458451
     20 C7          4.7260   -1.0590   -3.0540 c3        1 MOL      0.004911
     21 C8          5.2730   -2.4090   -2.4130 c         1 MOL      0.473724
     22 O5          5.3520   -3.4450   -3.0510 o         1 MOL     -0.567352
     23 C9          3.2340   -0.8310   -2.5840 c3        1 MOL      0.188384
     24 C10         2.2420   -1.9650   -2.9420 c3        1 MOL     -0.161273
     25 C11         2.6460    0.5340   -3.1300 c3        1 MOL     -0.266428
     26 C12         1.8280   -2.0390   -4.3480 c3        1 MOL     -0.337174
     27 H8          5.9660    0.5280   -3.8310 hn        1 MOL      0.291583
     28 H9          4.6000   -1.3230   -4.1020 h1        1 MOL      0.062276
     29 H10         3.2560   -0.7760   -1.4960 hc        1 MOL     -0.085604
     30 H11         1.3110   -1.8210   -2.3840 hc        1 MOL      0.137679
     31 H12         2.6220   -2.9290   -2.6040 hc        1 MOL      0.137679
     32 H13         3.1430    1.3860   -2.6740 hc        1 MOL      0.073376
     33 H14         2.7310    0.4260   -4.2150 hc        1 MOL      0.073376
     34 H15         1.5620    0.5550   -3.0590 hc        1 MOL      0.073376
     35 H16         1.1800   -2.9100   -4.4500 hc        1 MOL      0.068360
     36 H17         1.2540   -1.2070   -4.7420 hc        1 MOL      0.068360
     37 H18         2.7260   -2.2270   -4.9390 hc        1 MOL      0.068360
     38 N3          5.9140   -2.2120   -1.3090 n         1 MOL     -0.277787
     39 C13         6.6580   -3.2990   -0.5360 c3        1 MOL      0.043613
     40 C14         5.9950   -4.6730   -0.3370 c         1 MOL      0.583127
     41 O6          6.6880   -5.6750   -0.4280 o         1 MOL     -0.584312
     42 C15         7.0900   -2.7830    0.8470 c3        1 MOL     -0.384700
     43 C16         7.9940   -1.5410    0.7770 c         1 MOL      0.881793
     44 O7          9.0350   -1.5710    0.1120 o         1 MOL     -0.739170
     45 O8          7.7820   -0.5800    1.6300 o         1 MOL     -0.739170
     46 H19         5.7150   -1.2880   -0.9450 hn        1 MOL      0.237843
     47 H20         7.5200   -3.5570   -1.1530 h1        1 MOL      0.075936
     48 H21         7.7340   -3.5300    1.3300 hc        1 MOL      0.091472
     49 H22         6.2570   -2.4850    1.4840 hc        1 MOL      0.091472
     50 N4          4.6650   -4.7380   -0.1490 n         1 MOL     -0.480448
     51 C17         3.6850   -3.7430    0.2710 c3        1 MOL      0.147057
     52 C18         2.5690   -4.3480    1.0160 c         1 MOL      0.571310
     53 O9          2.2810   -5.5510    0.9490 o         1 MOL     -0.625710
     54 H23         4.3240   -5.6820   -0.1520 hn        1 MOL      0.261528
     55 H24         3.2590   -3.3370   -0.6440 h1        1 MOL      0.022644
     56 H25         4.1740   -2.9490    0.8340 h1        1 MOL      0.022644
     57 N5          1.9130   -3.8010    2.0120 n         1 MOL     -0.476970
     58 C19         2.0670   -2.4580    2.5600 c3        1 MOL      0.203040
     59 C20         2.1600   -1.3140    1.4960 c         1 MOL      0.098133
     60 O10         3.2280   -0.7280    1.2690 o         1 MOL     -0.459992
     61 C21         3.2930   -2.4290    3.5140 c3        1 MOL     -0.314083
     62 C22         3.3740   -1.1280    4.3590 c         1 MOL      0.789182
     63 O11         4.4940   -0.7130    4.6890 o         1 MOL     -0.710354
     64 O12         2.3450   -0.5060    4.6940 o         1 MOL     -0.710354
     65 H26         1.1880   -4.3580    2.4520 hn        1 MOL      0.326389
     66 H27         1.2790   -2.2560    3.2870 h1        1 MOL      0.021693
     67 H28         4.1870   -2.4570    2.8890 hc        1 MOL      0.068405
     68 H29         3.2950   -3.2730    4.2070 hc        1 MOL      0.068405
     69 N6          1.1270   -1.0100    0.7630 n         1 MOL      0.000784
     70 C23        -0.2530   -1.4600    0.9280 c3        1 MOL      0.010061
     71 C24        -0.6110   -2.8190    0.2890 c         1 MOL      0.471480
     72 O13         0.0410   -3.3010   -0.6110 o         1 MOL     -0.570177
     73 H30         1.4170   -0.2800    0.1220 hn        1 MOL      0.132001
     74 H31        -0.9650   -0.6520    0.7450 h1        1 MOL      0.033592
     75 H32        -0.3810   -1.6390    2.0010 h1        1 MOL      0.033592
     76 N7         -1.8300   -3.3030    0.5690 n         1 MOL     -0.167030
     77 C25        -2.3880   -4.5290   -0.0300 c3        1 MOL     -0.254219
     78 C26        -3.1150   -4.3400   -1.3880 c         1 MOL      0.467004
     79 O14        -3.5130   -5.2720   -2.0170 o         1 MOL     -0.495712
     80 C27        -3.1010   -5.3860    0.9660 c3        1 MOL      0.077431
     81 C28        -2.1830   -6.2910    1.7570 c3        1 MOL     -0.308368
     82 C29        -1.0350   -5.7750    2.5860 c         1 MOL      0.767498
     83 N8         -0.3160   -6.5830    3.2920 n         1 MOL     -0.749853
     84 O15        -0.9400   -4.5770    2.8330 o         1 MOL     -0.591640
     85 H33        -2.3500   -2.7590    1.2570 hn        1 MOL      0.193034
     86 H34        -1.5810   -5.1840   -0.3720 h1        1 MOL      0.219059
     87 H35        -3.9110   -5.9270    0.4700 hc        1 MOL      0.035346
     88 H36        -3.5640   -4.8580    1.8020 hc        1 MOL      0.035346
     89 H37        -1.6950   -6.9740    1.0600 hc        1 MOL      0.066449
     90 H38        -2.8430   -6.7290    2.5030 hc        1 MOL      0.066449
     91 H39        -0.5950   -7.5480    3.3620 hn        1 MOL      0.345937
     92 H40         0.2270   -6.1010    3.9920 hn        1 MOL      0.345937
     93 N9         -3.3990   -3.0750   -1.8270 n         1 MOL     -0.326380
     94 C30        -4.0650   -2.6750   -3.1270 c3        1 MOL     -0.017755
     95 C31        -5.3790   -1.8790   -3.1240 c         1 MOL      0.517771
     96 O16        -5.8330   -1.6640   -4.2520 o         1 MOL     -0.554770
     97 C32        -3.0080   -1.9480   -4.0030 c3        1 MOL      0.127165
     98 C33        -1.7770   -2.8030   -4.4500 c3        1 MOL     -0.216930
     99 C34        -2.5210   -0.6290   -3.4130 c3        1 MOL     -0.216930
    100 H41        -3.0460   -2.3520   -1.2220 hn        1 MOL      0.151996
    101 H42        -4.3500   -3.5780   -3.6710 h1        1 MOL      0.096477
    102 H43        -3.5110   -1.6530   -4.9160 hc        1 MOL      0.004885
    103 H44        -2.0040   -3.7630   -4.9170 hc        1 MOL      0.065956
    104 H45        -1.1710   -2.2230   -5.1540 hc        1 MOL      0.065956
    105 H46        -1.1480   -2.9520   -3.5820 hc        1 MOL      0.065956
    106 H47        -1.8930   -0.1710   -4.1790 hc        1 MOL      0.065956
    107 H48        -3.3740    0.0230   -3.2530 hc        1 MOL      0.065956
    108 H49        -1.9360   -0.6560   -2.4910 hc        1 MOL      0.065956
    109 N10        -5.9060   -1.5480   -1.9890 n         1 MOL     -0.407971
    110 C35        -7.3170   -1.0730   -1.8720 c3        1 MOL      0.199734
    111 C36        -7.3980    0.4120   -1.3680 c         1 MOL      0.474478
    112 O17        -8.3930    1.0430   -1.7170 o         1 MOL     -0.562403
    113 C37        -8.3670   -2.0700   -1.1900 c3        1 MOL     -0.332490
    114 C38        -8.3080   -3.5140   -1.7370 c         1 MOL      0.735251
    115 N11        -8.3020   -3.6920   -3.0180 n         1 MOL     -0.813621
    116 O18        -8.3300   -4.5120   -1.0510 o         1 MOL     -0.568215
    117 H50        -5.4450   -1.6830   -1.0940 hn        1 MOL      0.279290
    118 H51        -7.6570   -1.0560   -2.9070 h1        1 MOL      0.021344
    119 H52        -9.3820   -1.6860   -1.1920 hc        1 MOL      0.079967
    120 H53        -8.0790   -2.2380   -0.1560 hc        1 MOL      0.079967
    121 H54        -8.4710   -2.9240   -3.6670 hn        1 MOL      0.372437
    122 H55        -8.2240   -4.6110   -3.4230 hn        1 MOL      0.372437
    123 N12        -6.4960    0.8800   -0.5520 n         1 MOL     -0.361196
    124 C39        -6.6120    2.1920    0.1110 c3        1 MOL      0.178749
    125 C40        -5.2350    2.9350    0.3040 c         1 MOL      0.312257
    126 O19        -4.2240    2.2540    0.4000 o         1 MOL     -0.395637
    127 C41        -7.3220    1.9830    1.4970 c3        1 MOL     -0.066879
    128 C42        -6.9950    0.7690    2.3930 ca        1 MOL      0.038944
    129 C43        -7.9030   -0.3670    2.4200 ca        1 MOL     -0.193727
    130 C44        -5.9160    0.8960    3.2570 ca        1 MOL     -0.193727
    131 C45        -7.5550   -1.4110    3.2960 ca        1 MOL     -0.171131
    132 C46        -5.5210   -0.1940    4.0900 ca        1 MOL     -0.171131
    133 C47        -6.3420   -1.3370    4.0920 ca        1 MOL      0.250432
    134 O20        -5.8980   -2.3600    4.9700 oh        1 MOL     -0.569913
    135 H56        -5.6380    0.3570   -0.4620 hn        1 MOL      0.210062
    136 H57        -7.2880    2.8540   -0.4170 h1        1 MOL      0.039282
    137 H58        -8.4030    2.1710    1.4570 hc        1 MOL      0.045014
    138 H59        -7.1700    2.8670    2.1140 hc        1 MOL      0.045014
    139 H60        -8.7200   -0.5910    1.7610 ha        1 MOL      0.153973
    140 H61        -5.3070    1.7780    3.1480 ha        1 MOL      0.153973
    141 H62        -8.1630   -2.3110    3.3130 ha        1 MOL      0.139450
    142 H63        -4.6690   -0.2230    4.7480 ha        1 MOL      0.139450
    143 H64        -5.0380   -2.1380    5.3210 ho        1 MOL      0.425739
    144 N13        -5.3240    4.2580    0.6210 n         1 MOL     -0.526791
    145 C48        -4.1630    5.0490    0.8880 c3        1 MOL      0.017858
    146 C49        -2.9840    5.2200   -0.1170 c         1 MOL      0.374609
    147 O21        -2.5000    6.3290   -0.2430 o         1 MOL     -0.541388
    148 C50        -3.5660    4.7200    2.2600 c3        1 MOL     -0.001415
    149 C51        -2.8780    5.8550    3.0690 c3        1 MOL     -0.379512
    150 C52        -2.4590    5.5780    4.4910 c         1 MOL      0.688613
    151 O22        -1.8630    4.5020    4.8090 o         1 MOL     -0.719685
    152 O23        -2.6110    6.5160    5.3580 o         1 MOL     -0.719685
    153 H65        -6.1820    4.7870    0.5810 hn        1 MOL      0.331887
    154 H66        -4.6690    6.0140    0.9600 h1        1 MOL      0.080417
    155 H67        -2.8050    3.9360    2.1490 hc        1 MOL      0.073959
    156 H68        -4.1920    4.2270    3.0050 hc        1 MOL      0.073959
    157 H69        -3.4960    6.7490    3.0890 hc        1 MOL      0.089000
    158 H70        -1.9900    6.0890    2.4820 hc        1 MOL      0.089000
    159 N14        -2.5830    4.1710   -0.8320 n         1 MOL     -0.139671
    160 C53        -1.4490    4.2920   -1.7690 c3        1 MOL     -0.084551
    161 C54        -1.6550    5.2000   -3.0310 c         1 MOL      0.473650
    162 O24        -0.7240    5.5370   -3.7370 o         1 MOL     -0.519507
    163 C55        -1.1330    2.8200   -2.1290 c3        1 MOL     -0.064502
    164 C56        -0.7310    1.9540   -0.9450 c3        1 MOL      0.492932
    165 C57         0.4500    2.4460   -0.0870 c         1 MOL      0.578174
    166 O25         1.5840    1.9430   -0.1780 o         1 MOL     -0.649734
    167 O26         0.1870    3.3020    0.7440 o         1 MOL     -0.649734
    168 H71        -2.9870    3.2930   -0.5690 hn        1 MOL      0.182925
    169 H72        -0.5590    4.7270   -1.3090 h1        1 MOL      0.152734
    170 H73        -0.2590    2.7700   -2.7880 hc        1 MOL     -0.048352
    171 H74        -2.0130    2.3370   -2.5480 hc        1 MOL     -0.048352
    172 H75        -0.5270    0.9310   -1.2620 hc        1 MOL     -0.163013
    173 H76        -1.5650    1.8160   -0.2600 hc        1 MOL     -0.163013
    174 N15        -2.9180    5.5990   -3.2650 n         1 MOL     -0.167040
    175 C58        -3.3150    6.4400   -4.4060 c3        1 MOL     -0.271925
    176 H77        -2.6170    7.2730   -4.5030 h1        1 MOL      0.102181
    177 H78        -3.3000    5.8450   -5.3190 h1        1 MOL      0.102181
    178 H79        -4.3210    6.8270   -4.2400 h1        1 MOL      0.102181
    179 H80        -3.6200    5.1610   -2.6890 hn        1 MOL      0.182815
    180 Ca1         3.9300    2.1350    1.0750 Ca        1 MOL      1.840814
    181 O27         5.4100    0.5280    2.5350 oh        1 MOL     -0.872986
    182 H81         5.2740    0.0580    3.3570 ho        1 MOL      0.417316
    183 H82         6.0430   -0.0090    2.0590 ho        1 MOL      0.417316
    184 O28         4.9180    3.3020    3.4770 oh        1 MOL     -0.872986
    185 H83         5.1290    2.5930    4.0870 ho        1 MOL      0.417316
    186 H84         5.3630    4.0710    3.8320 ho        1 MOL      0.417316
    187 O29         2.8020    4.4740    1.0640 oh        1 MOL     -0.872986
    188 H85         1.9330    4.2900    0.6900 ho        1 MOL      0.417316
    189 H86         2.6970    5.3140    1.4970 ho        1 MOL      0.417316
    190 O30         2.0320    1.5380    2.8290 oh        1 MOL     -0.872986
    191 H87         1.1730    1.9440    2.9270 ho        1 MOL      0.417316
    192 H88         2.0580    0.8670    3.5160 ho        1 MOL      0.417316
@<TRIPOS>BOND
     1    1    2 1   
     2    1    4 1   
     3    1    5 1   
     4    1    6 1   
     5    2    3 2   
     6    2    7 1   
     7    7    8 1   
     8    7   15 1   
     9    8    9 1   
    10    8   11 1   
    11    8   16 1   
    12    9   10 2   
    13    9   19 1   
    14   11   12 1   
    15   11   17 1   
    16   11   18 1   
    17   12   13 1   
    18   12   14 1   
    19   19   20 1   
    20   19   27 1   
    21   20   21 1   
    22   20   23 1   
    23   20   28 1   
    24   21   22 2   
    25   21   38 1   
    26   23   24 1   
    27   23   25 1   
    28   23   29 1   
    29   24   26 1   
    30   24   30 1   
    31   24   31 1   
    32   25   32 1   
    33   25   33 1   
    34   25   34 1   
    35   26   35 1   
    36   26   36 1   
    37   26   37 1   
    38   38   39 1   
    39   38   46 1   
    40   39   40 1   
    41   39   42 1   
    42   39   47 1   
    43   40   41 2   
    44   40   50 1   
    45   42   43 1   
    46   42   48 1   
    47   42   49 1   
    48   43   44 1   
    49   43   45 1   
    50   50   51 1   
    51   50   54 1   
    52   51   52 1   
    53   51   55 1   
    54   51   56 1   
    55   52   53 2   
    56   52   57 1   
    57   57   58 1   
    58   57   65 1   
    59   58   59 1   
    60   58   61 1   
    61   58   66 1   
    62   59   60 2   
    63   59   69 1   
    64   61   62 1   
    65   61   67 1   
    66   61   68 1   
    67   62   63 1   
    68   62   64 1   
    69   69   70 1   
    70   69   73 1   
    71   70   71 1   
    72   70   74 1   
    73   70   75 1   
    74   71   72 2   
    75   71   76 1   
    76   76   77 1   
    77   76   85 1   
    78   77   78 1   
    79   77   80 1   
    80   77   86 1   
    81   78   79 2   
    82   78   93 1   
    83   80   81 1   
    84   80   87 1   
    85   80   88 1   
    86   81   82 1   
    87   81   89 1   
    88   81   90 1   
    89   82   83 1   
    90   82   84 2   
    91   83   91 1   
    92   83   92 1   
    93   93   94 1   
    94   93  100 1   
    95   94   95 1   
    96   94   97 1   
    97   94  101 1   
    98   95   96 2   
    99   95  109 1   
   100   97   98 1   
   101   97   99 1   
   102   97  102 1   
   103   98  103 1   
   104   98  104 1   
   105   98  105 1   
   106   99  106 1   
   107   99  107 1   
   108   99  108 1   
   109  109  110 1   
   110  109  117 1   
   111  110  111 1   
   112  110  113 1   
   113  110  118 1   
   114  111  112 2   
   115  111  123 1   
   116  113  114 1   
   117  113  119 1   
   118  113  120 1   
   119  114  115 1   
   120  114  116 2   
   121  115  121 1   
   122  115  122 1   
   123  123  124 1   
   124  123  135 1   
   125  124  125 1   
   126  124  127 1   
   127  124  136 1   
   128  125  126 2   
   129  125  144 1   
   130  127  128 1   
   131  127  137 1   
   132  127  138 1   
   133  128  129 ar  
   134  128  130 ar  
   135  129  131 ar  
   136  129  139 1   
   137  130  132 ar  
   138  130  140 1   
   139  131  133 ar  
   140  131  141 1   
   141  132  133 ar  
   142  132  142 1   
   143  133  134 1   
   144  134  143 1   
   145  144  145 1   
   146  144  153 1   
   147  145  146 1   
   148  145  148 1   
   149  145  154 1   
   150  146  147 2   
   151  146  159 1   
   152  148  149 1   
   153  148  155 1   
   154  148  156 1   
   155  149  150 1   
   156  149  157 1   
   157  149  158 1   
   158  150  151 1   
   159  150  152 1   
   160  159  160 1   
   161  159  168 1   
   162  160  161 1   
   163  160  163 1   
   164  160  169 1   
   165  161  162 2   
   166  161  174 1   
   167  163  164 1   
   168  163  170 1   
   169  163  171 1   
   170  164  165 1   
   171  164  172 1   
   172  164  173 1   
   173  165  166 1   
   174  165  167 1   
   175  174  175 1   
   176  174  179 1   
   177  175  176 1   
   178  175  177 1   
   179  175  178 1   
   180  181  182 1   
   181  181  183 1   
   182  184  185 1   
   183  184  186 1   
   184  187  188 1   
   185  187  189 1   
   186  190  191 1   
   187  190  192 1   
@<TRIPOS>SUBSTRUCTURE
     1 MOL         1 TEMP              0 ****  ****    0 ROOT
