@<TRIPOS>MOLECULE
MOL
  192   187     1     0     0
SMALL
resp


@<TRIPOS>ATOM
      1 C1         -5.4320   -5.0740   -2.7520 c3        1 MOL     -0.346173
      2 C2         -5.8180   -3.7850   -2.0490 c         1 MOL      0.753896
      3 O1         -4.9890   -3.2590   -1.2940 o         1 MOL     -0.662387
      4 H1         -4.4250   -5.3640   -2.4520 hc        1 MOL      0.088867
      5 H2         -6.1350   -5.8620   -2.4780 hc        1 MOL      0.088867
      6 H3         -5.4600   -4.9210   -3.8310 hc        1 MOL      0.088867
      7 N1         -6.9970   -3.1690   -2.3150 n         1 MOL     -0.700090
      8 C3         -7.4660   -1.8790   -1.8740 c3        1 MOL      0.213666
      9 C4         -6.3010   -0.8780   -1.6730 c         1 MOL      0.546345
     10 O2         -5.8070   -0.6080   -0.6130 o         1 MOL     -0.510894
     11 C5         -8.3450   -1.9580   -0.6060 c3        1 MOL     -0.263778
     12 C6         -7.9390   -2.5690    0.7010 c         1 MOL      0.783150
     13 O3         -6.7720   -2.9950    0.8930 o         1 MOL     -0.721729
     14 O4         -8.8770   -2.7530    1.5280 o         1 MOL     -0.721729
     15 H4         -7.7030   -3.7760   -2.6900 hn        1 MOL      0.345001
     16 H5         -8.0350   -1.4190   -2.6910 h1        1 MOL      0.000917
     17 H6         -9.2650   -2.4840   -0.8330 hc        1 MOL      0.053583
     18 H7         -8.4890   -0.9010   -0.4050 hc        1 MOL      0.053583
     19 N2         -5.7120   -0.4630   -2.8120 n         1 MOL     -0.504282
     20 C7         -4.9380    0.7230   -2.9830 c3        1 MOL      0.169368
     21 C8         -5.5280    2.0890   -2.5180 c         1 MOL      0.353818
     22 O5         -5.9670    2.8690   -3.3590 o         1 MOL     -0.555384
     23 C9         -3.4920    0.4290   -2.5300 c3        1 MOL      0.316971
     24 C10        -2.6160    1.5130   -3.1470 c3        1 MOL     -0.133629
     25 C11        -2.9160   -0.9090   -3.0360 c3        1 MOL     -0.241092
     26 C12        -2.6280    1.7770   -4.7010 c3        1 MOL     -0.308814
     27 H8         -6.2120   -0.7600   -3.6330 hn        1 MOL      0.271381
     28 H9         -4.9030    0.8240   -4.0650 h1        1 MOL      0.025712
     29 H10        -3.5980    0.3460   -1.4510 hc        1 MOL     -0.201681
     30 H11        -1.5820    1.2710   -2.9040 hc        1 MOL      0.095749
     31 H12        -2.7540    2.4080   -2.5410 hc        1 MOL      0.095749
     32 H13        -3.2070   -1.0770   -4.0760 hc        1 MOL      0.051159
     33 H14        -1.8620   -1.0780   -2.8050 hc        1 MOL      0.051159
     34 H15        -3.3340   -1.7240   -2.4530 hc        1 MOL      0.051159
     35 H16        -1.8770    2.5120   -4.9740 hc        1 MOL      0.068176
     36 H17        -2.3530    0.8460   -5.2030 hc        1 MOL      0.068176
     37 H18        -3.6310    2.0680   -5.0080 hc        1 MOL      0.068176
     38 N3         -5.6900    2.3150   -1.2210 n         1 MOL     -0.090784
     39 C13        -6.3630    3.4960   -0.6430 c3        1 MOL     -0.038287
     40 C14        -5.5150    4.7760   -0.3480 c         1 MOL      0.623918
     41 O6         -6.0520    5.8690   -0.6220 o         1 MOL     -0.566162
     42 C15        -7.0870    3.0760    0.6780 c3        1 MOL     -0.180432
     43 C16        -8.4290    3.7090    0.9800 c         1 MOL      0.699535
     44 O7         -9.3560    3.3550    0.1810 o         1 MOL     -0.712238
     45 O8         -8.6060    4.5810    1.8620 o         1 MOL     -0.712238
     46 H19        -5.4760    1.5210   -0.6230 hn        1 MOL      0.130632
     47 H20        -7.1980    3.9000   -1.2190 h1        1 MOL      0.088004
     48 H21        -6.3910    3.1590    1.5130 hc        1 MOL      0.057167
     49 H22        -7.1560    1.9940    0.6020 hc        1 MOL      0.057167
     50 N4         -4.2880    4.7280    0.1280 n         1 MOL     -0.712981
     51 C17        -3.5100    3.5420    0.4360 c3        1 MOL      0.459853
     52 C18        -2.1910    3.9210    1.1320 c         1 MOL      0.471927
     53 O9         -1.5420    4.9040    0.8300 o         1 MOL     -0.567495
     54 H23        -3.9620    5.6100    0.5000 hn        1 MOL      0.333759
     55 H24        -3.2470    2.9030   -0.4060 h1        1 MOL     -0.046327
     56 H25        -4.1460    2.9760    1.1180 h1        1 MOL     -0.046327
     57 N5         -1.7350    3.1100    2.1100 n         1 MOL     -0.469118
     58 C19        -2.2390    1.8310    2.6520 c3        1 MOL      0.030993
     59 C20        -2.4400    0.7070    1.5290 c         1 MOL      0.197599
     60 O10        -3.5730    0.2470    1.2430 o         1 MOL     -0.439762
     61 C21        -3.3930    2.0070    3.6130 c3        1 MOL     -0.264685
     62 C22        -3.8080    0.6630    4.3530 c         1 MOL      0.750679
     63 O11        -4.9490    0.6620    4.8280 o         1 MOL     -0.675586
     64 O12        -2.9850   -0.2780    4.4990 o         1 MOL     -0.675586
     65 H26        -0.9620    3.5300    2.5940 hn        1 MOL      0.301268
     66 H27        -1.4770    1.4020    3.3070 h1        1 MOL      0.101358
     67 H28        -4.2360    2.5340    3.1750 hc        1 MOL      0.077083
     68 H29        -3.1090    2.5990    4.4840 hc        1 MOL      0.077083
     69 N6         -1.3760    0.2970    0.7940 n         1 MOL     -0.061616
     70 C23         0.0340    0.7280    0.9370 c3        1 MOL     -0.026433
     71 C24         0.3250    1.9700    0.1420 c         1 MOL      0.672595
     72 O13        -0.2250    2.1670   -0.9250 o         1 MOL     -0.536071
     73 H30        -1.5430   -0.4340    0.1130 hn        1 MOL      0.118926
     74 H31         0.6250   -0.0430    0.4430 h1        1 MOL      0.016845
     75 H32         0.3110    0.8450    1.9830 h1        1 MOL      0.016845
     76 N7          1.3290    2.7460    0.6490 n         1 MOL     -0.656197
     77 C25         1.7990    3.9410   -0.0320 c3        1 MOL      0.053011
     78 C26         2.6190    3.7280   -1.3640 c         1 MOL      0.217155
     79 O14         2.9880    4.7280   -2.0270 o         1 MOL     -0.504063
     80 C27         2.6530    4.8500    0.8330 c3        1 MOL      0.138095
     81 C28         1.7030    5.4420    1.8850 c3        1 MOL     -0.253095
     82 C29         2.3280    6.6470    2.5990 c         1 MOL      0.606714
     83 N8          1.8950    7.8490    2.2580 n         1 MOL     -0.722469
     84 O15         3.2600    6.4260    3.3470 o         1 MOL     -0.558526
     85 H33         1.6200    2.6460    1.6110 hn        1 MOL      0.348002
     86 H34         0.9110    4.5040   -0.3230 h1        1 MOL      0.141089
     87 H35         3.0940    5.6140    0.1970 hc        1 MOL      0.020361
     88 H36         3.4280    4.2350    1.2870 hc        1 MOL      0.020361
     89 H37         1.3720    4.6800    2.5990 hc        1 MOL      0.062909
     90 H38         0.7570    5.6890    1.4050 hc        1 MOL      0.062909
     91 H39         0.9890    7.9270    1.8110 hn        1 MOL      0.340533
     92 H40         2.2770    8.6790    2.6990 hn        1 MOL      0.340533
     93 N9          2.8530    2.5220   -1.8100 n         1 MOL      0.044765
     94 C30         3.4560    2.3050   -3.1380 c3        1 MOL     -0.141077
     95 C31         4.9070    1.8990   -3.1170 c         1 MOL      0.515146
     96 O16         5.5660    1.9220   -4.1730 o         1 MOL     -0.529836
     97 C32         2.5610    1.2390   -3.8880 c3        1 MOL      0.155177
     98 C33         1.1250    1.6680   -4.1920 c3        1 MOL     -0.118824
     99 C34         2.4210   -0.0840   -3.0070 c3        1 MOL     -0.118824
    100 H41         2.5830    1.7070   -1.2840 hn        1 MOL      0.125113
    101 H42         3.3220    3.1930   -3.7520 h1        1 MOL      0.142768
    102 H43         3.0750    1.0110   -4.8190 hc        1 MOL     -0.009853
    103 H44         1.2400    2.4210   -4.9670 hc        1 MOL      0.019853
    104 H45         0.5680    0.8140   -4.5670 hc        1 MOL      0.019853
    105 H46         0.5470    2.1450   -3.3910 hc        1 MOL      0.019853
    106 H47         1.9740   -0.8980   -3.5810 hc        1 MOL      0.019853
    107 H48         3.3990   -0.4030   -2.6410 hc        1 MOL      0.019853
    108 H49         1.7160   -0.0180   -2.1810 hc        1 MOL      0.019853
    109 N10         5.5120    1.6420   -1.9410 n         1 MOL     -0.490445
    110 C35         6.9490    1.2830   -1.8700 c3        1 MOL      0.159494
    111 C36         7.1460   -0.1500   -1.2120 c         1 MOL      0.505481
    112 O17         8.0990   -0.8380   -1.5170 o         1 MOL     -0.561141
    113 C37         7.5970    2.4760   -1.0580 c3        1 MOL     -0.377397
    114 C38         7.8530    3.6370   -2.0010 c         1 MOL      0.699451
    115 N11         9.0830    4.0370   -2.2310 n         1 MOL     -0.798098
    116 O18         6.9500    4.3750   -2.3920 o         1 MOL     -0.529070
    117 H50         4.9780    1.7110   -1.0900 hn        1 MOL      0.258018
    118 H51         7.4240    1.2030   -2.8420 h1        1 MOL      0.078637
    119 H52         8.5990    2.1550   -0.7600 hc        1 MOL      0.121235
    120 H53         6.9690    2.7770   -0.2310 hc        1 MOL      0.121235
    121 H54         9.8210    3.3770   -2.0530 hn        1 MOL      0.358404
    122 H55         9.2160    4.9480   -2.6600 hn        1 MOL      0.358404
    123 N12         6.2320   -0.5850   -0.3540 n         1 MOL     -0.308122
    124 C39         6.2580   -1.7790    0.5410 c3        1 MOL      0.072219
    125 C40         4.9630   -2.5280    0.6360 c         1 MOL      0.509406
    126 O19         3.9080   -1.9780    0.3490 o         1 MOL     -0.494108
    127 C41         6.7620   -1.3200    1.9260 c3        1 MOL     -0.212523
    128 C42         8.0390   -0.5800    1.9370 ca        1 MOL      0.051318
    129 C43         9.2250   -1.2980    1.6030 ca        1 MOL     -0.145878
    130 C44         8.1280    0.7860    2.2960 ca        1 MOL     -0.145878
    131 C45        10.5110   -0.7370    1.7360 ca        1 MOL     -0.263118
    132 C46         9.4480    1.4020    2.2910 ca        1 MOL     -0.263118
    133 C47        10.6390    0.6450    2.1030 ca        1 MOL      0.288477
    134 O20        11.8190    1.3120    2.1600 oh        1 MOL     -0.479536
    135 H56         5.4180    0.0170   -0.2710 hn        1 MOL      0.194759
    136 H57         6.9200   -2.4410   -0.0150 h1        1 MOL      0.048826
    137 H58         6.9820   -2.1570    2.5950 hc        1 MOL      0.117000
    138 H59         5.9900   -0.6480    2.3130 hc        1 MOL      0.117000
    139 H60         9.1380   -2.3020    1.2140 ha        1 MOL      0.125935
    140 H61         7.2050    1.3460    2.2770 ha        1 MOL      0.125935
    141 H62        11.3650   -1.3900    1.6190 ha        1 MOL      0.136061
    142 H63         9.5770    2.4720    2.3640 ha        1 MOL      0.136061
    143 H64        12.4930    0.6870    1.9130 ho        1 MOL      0.359943
    144 N13         5.0600   -3.7740    1.1490 n         1 MOL     -0.524997
    145 C48         3.9900   -4.7620    1.3510 c3        1 MOL     -0.036157
    146 C49         3.0520   -5.0710    0.1860 c         1 MOL      0.309079
    147 O21         2.4240   -6.1070    0.2750 o         1 MOL     -0.516062
    148 C50         3.1420   -4.5090    2.6160 c3        1 MOL      0.406192
    149 C51         3.8600   -4.2730    3.9340 c3        1 MOL     -0.225871
    150 C52         2.8880   -3.9260    5.1120 c         1 MOL      0.708174
    151 O22         3.2590   -4.1680    6.2910 o         1 MOL     -0.725408
    152 O23         1.7140   -3.5710    4.7810 o         1 MOL     -0.725408
    153 H65         5.9900   -4.0580    1.4180 hn        1 MOL      0.304620
    154 H66         4.5040   -5.6920    1.5870 h1        1 MOL      0.069878
    155 H67         2.4230   -5.3150    2.7740 hc        1 MOL     -0.045376
    156 H68         2.5360   -3.6120    2.4390 hc        1 MOL     -0.045376
    157 H69         4.4250   -3.3520    3.8720 hc        1 MOL     -0.024905
    158 H70         4.4980   -5.1360    4.1060 hc        1 MOL     -0.024905
    159 N14         2.8230   -4.3470   -0.8910 n         1 MOL     -0.170417
    160 C53         1.6630   -4.5590   -1.7950 c3        1 MOL     -0.120338
    161 C54         2.0360   -5.4610   -3.0300 c         1 MOL      0.465212
    162 O24         1.1520   -6.1270   -3.5860 o         1 MOL     -0.509085
    163 C55         0.8820   -3.2490   -2.1040 c3        1 MOL     -0.086717
    164 C56         0.1930   -2.5240   -0.9370 c3        1 MOL      0.352593
    165 C57        -1.1600   -3.0710   -0.5090 c         1 MOL      0.665712
    166 O25        -2.0870   -2.2080   -0.2360 o         1 MOL     -0.658675
    167 O26        -1.2580   -4.3350   -0.4370 o         1 MOL     -0.658675
    168 H71         3.2990   -3.4560   -1.0020 hn        1 MOL      0.181838
    169 H72         0.9600   -5.1510   -1.2060 h1        1 MOL      0.163965
    170 H73         0.1520   -3.4880   -2.8780 hc        1 MOL      0.008962
    171 H74         1.7090   -2.6990   -2.5470 hc        1 MOL      0.008962
    172 H75         0.0480   -1.5210   -1.3400 hc        1 MOL     -0.091683
    173 H76         0.7720   -2.6390   -0.0190 hc        1 MOL     -0.091683
    174 N15         3.3580   -5.4090   -3.3810 n         1 MOL     -0.254682
    175 C58         4.0360   -6.2190   -4.3720 c3        1 MOL     -0.161694
    176 H77         4.9700   -6.5970   -3.9550 h1        1 MOL      0.076401
    177 H78         3.3990   -7.0570   -4.6540 h1        1 MOL      0.076401
    178 H79         4.2520   -5.6130   -5.2520 h1        1 MOL      0.076401
    179 H80         4.0380   -4.9060   -2.8210 hn        1 MOL      0.212714
    180 Ca1        -4.3760   -2.2280    1.1350 Ca        1 MOL      1.862356
    181 O27        -2.2610   -2.1050    2.7930 oh        1 MOL     -0.895725
    182 H81        -1.5560   -2.7120    3.0270 ho        1 MOL      0.415344
    183 H82        -2.3410   -1.5280    3.5510 ho        1 MOL      0.415344
    184 O28        -4.8460   -3.4910    3.6070 oh        1 MOL     -0.895725
    185 H83        -4.5340   -3.1430    4.4350 ho        1 MOL      0.415344
    186 H84        -4.8700   -4.4440    3.7360 ho        1 MOL      0.415344
    187 O29        -3.5760   -4.7380    1.0050 oh        1 MOL     -0.895725
    188 H85        -3.6280   -5.5530    1.4930 ho        1 MOL      0.415344
    189 H86        -2.7450   -4.7920    0.5340 ho        1 MOL      0.415344
    190 O30        -6.2110   -0.8230    3.0550 oh        1 MOL     -0.895725
    191 H87        -7.0650   -1.0190    3.4580 ho        1 MOL      0.415344
    192 H88        -5.7200   -0.3780    3.7460 ho        1 MOL      0.415344
@<TRIPOS>BOND
     1    1    2 1   
     2    1    4 1   
     3    1    5 1   
     4    1    6 1   
     5    2    3 2   
     6    2    7 1   
     7    7    8 1   
     8    7   15 1   
     9    8    9 1   
    10    8   11 1   
    11    8   16 1   
    12    9   10 2   
    13    9   19 1   
    14   11   12 1   
    15   11   17 1   
    16   11   18 1   
    17   12   13 1   
    18   12   14 1   
    19   19   20 1   
    20   19   27 1   
    21   20   21 1   
    22   20   23 1   
    23   20   28 1   
    24   21   22 2   
    25   21   38 1   
    26   23   24 1   
    27   23   25 1   
    28   23   29 1   
    29   24   26 1   
    30   24   30 1   
    31   24   31 1   
    32   25   32 1   
    33   25   33 1   
    34   25   34 1   
    35   26   35 1   
    36   26   36 1   
    37   26   37 1   
    38   38   39 1   
    39   38   46 1   
    40   39   40 1   
    41   39   42 1   
    42   39   47 1   
    43   40   41 2   
    44   40   50 1   
    45   42   43 1   
    46   42   48 1   
    47   42   49 1   
    48   43   44 1   
    49   43   45 1   
    50   50   51 1   
    51   50   54 1   
    52   51   52 1   
    53   51   55 1   
    54   51   56 1   
    55   52   53 2   
    56   52   57 1   
    57   57   58 1   
    58   57   65 1   
    59   58   59 1   
    60   58   61 1   
    61   58   66 1   
    62   59   60 2   
    63   59   69 1   
    64   61   62 1   
    65   61   67 1   
    66   61   68 1   
    67   62   63 1   
    68   62   64 1   
    69   69   70 1   
    70   69   73 1   
    71   70   71 1   
    72   70   74 1   
    73   70   75 1   
    74   71   72 2   
    75   71   76 1   
    76   76   77 1   
    77   76   85 1   
    78   77   78 1   
    79   77   80 1   
    80   77   86 1   
    81   78   79 2   
    82   78   93 1   
    83   80   81 1   
    84   80   87 1   
    85   80   88 1   
    86   81   82 1   
    87   81   89 1   
    88   81   90 1   
    89   82   83 1   
    90   82   84 2   
    91   83   91 1   
    92   83   92 1   
    93   93   94 1   
    94   93  100 1   
    95   94   95 1   
    96   94   97 1   
    97   94  101 1   
    98   95   96 2   
    99   95  109 1   
   100   97   98 1   
   101   97   99 1   
   102   97  102 1   
   103   98  103 1   
   104   98  104 1   
   105   98  105 1   
   106   99  106 1   
   107   99  107 1   
   108   99  108 1   
   109  109  110 1   
   110  109  117 1   
   111  110  111 1   
   112  110  113 1   
   113  110  118 1   
   114  111  112 2   
   115  111  123 1   
   116  113  114 1   
   117  113  119 1   
   118  113  120 1   
   119  114  115 1   
   120  114  116 2   
   121  115  121 1   
   122  115  122 1   
   123  123  124 1   
   124  123  135 1   
   125  124  125 1   
   126  124  127 1   
   127  124  136 1   
   128  125  126 2   
   129  125  144 1   
   130  127  128 1   
   131  127  137 1   
   132  127  138 1   
   133  128  129 ar  
   134  128  130 ar  
   135  129  131 ar  
   136  129  139 1   
   137  130  132 ar  
   138  130  140 1   
   139  131  133 ar  
   140  131  141 1   
   141  132  133 ar  
   142  132  142 1   
   143  133  134 1   
   144  134  143 1   
   145  144  145 1   
   146  144  153 1   
   147  145  146 1   
   148  145  148 1   
   149  145  154 1   
   150  146  147 2   
   151  146  159 1   
   152  148  149 1   
   153  148  155 1   
   154  148  156 1   
   155  149  150 1   
   156  149  157 1   
   157  149  158 1   
   158  150  151 1   
   159  150  152 1   
   160  159  160 1   
   161  159  168 1   
   162  160  161 1   
   163  160  163 1   
   164  160  169 1   
   165  161  162 2   
   166  161  174 1   
   167  163  164 1   
   168  163  170 1   
   169  163  171 1   
   170  164  165 1   
   171  164  172 1   
   172  164  173 1   
   173  165  166 1   
   174  165  167 1   
   175  174  175 1   
   176  174  179 1   
   177  175  176 1   
   178  175  177 1   
   179  175  178 1   
   180  181  182 1   
   181  181  183 1   
   182  184  185 1   
   183  184  186 1   
   184  187  188 1   
   185  187  189 1   
   186  190  191 1   
   187  190  192 1   
@<TRIPOS>SUBSTRUCTURE
     1 MOL         1 TEMP              0 ****  ****    0 ROOT
