@<TRIPOS>MOLECULE
MOL
  192   187     1     0     0
SMALL
resp


@<TRIPOS>ATOM
      1 C1          9.3110    1.4620    1.0450 c3        1 MOL     -0.580380
      2 C2          8.1710    0.6660    0.3500 c         1 MOL      0.815318
      3 O1          7.0670    0.6640    0.8560 o         1 MOL     -0.659933
      4 H1          8.9110    2.3940    1.4460 hc        1 MOL      0.143943
      5 H2          9.7270    0.8670    1.8570 hc        1 MOL      0.143943
      6 H3         10.0930    1.6860    0.3190 hc        1 MOL      0.143943
      7 N1          8.5750   -0.0300   -0.7340 n         1 MOL     -0.583290
      8 C3          7.6970   -0.8170   -1.6620 c3        1 MOL      0.019005
      9 C4          7.2300   -2.2320   -1.1660 c         1 MOL      0.343965
     10 O2          7.2880   -3.2700   -1.8330 o         1 MOL     -0.418799
     11 C5          8.3800   -1.0540   -2.9700 c3        1 MOL     -0.251494
     12 C6          9.6460   -1.9710   -2.9590 c         1 MOL      0.732655
     13 O3          9.8030   -2.6350   -4.0110 o         1 MOL     -0.642679
     14 O4         10.4880   -1.9180   -2.0620 o         1 MOL     -0.642679
     15 H4          9.5350    0.0560   -1.0350 hn        1 MOL      0.290651
     16 H5          6.8470   -0.2040   -1.9630 h1        1 MOL      0.129395
     17 H6          8.8040   -0.0980   -3.2630 hc        1 MOL      0.082670
     18 H7          7.6210   -1.3500   -3.6890 hc        1 MOL      0.082670
     19 N2          6.7240   -2.0920    0.0340 n         1 MOL     -0.213424
     20 C7          6.1600   -3.3100    0.6870 c3        1 MOL      0.006507
     21 C8          4.6700   -3.6050    0.5500 c         1 MOL      0.671317
     22 O5          4.3340   -4.7520    0.4960 o         1 MOL     -0.572571
     23 C9          6.3570   -3.2950    2.1580 c3        1 MOL      0.061243
     24 C10         7.9110   -3.3700    2.4320 c3        1 MOL     -0.093515
     25 C11         8.2360   -3.0880    3.9020 c3        1 MOL     -0.051691
     26 C12         9.5330   -3.7650    4.3860 c3        1 MOL      0.049314
     27 N3          9.9400   -3.3110    5.7390 n4        1 MOL     -0.239752
     28 H8          6.8060   -1.1930    0.4960 hn        1 MOL      0.226651
     29 H9          6.7140   -4.1420    0.2550 h1        1 MOL      0.063817
     30 H10         5.8720   -4.1480    2.6260 hc        1 MOL      0.004767
     31 H11         5.9210   -2.4520    2.6980 hc        1 MOL      0.004767
     32 H12         8.4860   -2.6230    1.8830 hc        1 MOL      0.051154
     33 H13         8.1740   -4.3770    2.1200 hc        1 MOL      0.051154
     34 H14         7.4250   -3.0880    4.6290 hc        1 MOL      0.027717
     35 H15         8.4230   -2.0200    3.8290 hc        1 MOL      0.027717
     36 H16        10.2490   -3.4500    3.6320 hx        1 MOL      0.076241
     37 H17         9.4680   -4.8480    4.3080 hx        1 MOL      0.076241
     38 H18        10.8940   -3.5610    5.9610 hn        1 MOL      0.260628
     39 H19         9.9620   -2.3000    5.7920 hn        1 MOL      0.260628
     40 H20         9.2760   -3.6410    6.4180 hn        1 MOL      0.260628
     41 N4          3.8040   -2.6310    0.3260 n         1 MOL     -0.649245
     42 C13         3.8390   -1.2830    0.8610 c3        1 MOL      0.013435
     43 C14         3.9560   -0.2200   -0.2190 c         1 MOL      0.565508
     44 O6          4.0380   -0.4210   -1.4440 o         1 MOL     -0.475707
     45 C15         2.6380   -1.1390    1.8700 c3        1 MOL     -0.035305
     46 C16         1.2260   -1.1890    1.3080 c         1 MOL      0.705686
     47 O7          1.0250   -0.4990    0.3260 o         1 MOL     -0.704587
     48 O8          0.3720   -1.8650    1.8370 o         1 MOL     -0.704587
     49 H21         2.9440   -2.8690   -0.1640 hn        1 MOL      0.399405
     50 H22         4.7400   -1.1210    1.4510 h1        1 MOL      0.058204
     51 H23         2.7480   -0.1510    2.3220 hc        1 MOL      0.001685
     52 H24         2.7800   -1.7430    2.7650 hc        1 MOL      0.001685
     53 N5          4.0840    1.0400    0.3150 n         1 MOL     -0.423833
     54 C17         4.1050    2.2780   -0.5770 c3        1 MOL     -0.019753
     55 C18         2.7520    2.8000   -1.0930 c         1 MOL      0.687980
     56 O9          1.7500    2.2770   -0.7430 o         1 MOL     -0.571230
     57 H25         4.0140    1.1530    1.3160 hn        1 MOL      0.289075
     58 H26         4.7600    1.9920   -1.3990 h1        1 MOL      0.064539
     59 H27         4.5860    3.1060   -0.0490 h1        1 MOL      0.064539
     60 N6          2.7710    3.9840   -1.6820 n         1 MOL     -0.683234
     61 C19         1.6270    4.8640   -2.1140 c3        1 MOL      0.568977
     62 C20         2.0390    6.3510   -2.1000 c         1 MOL      0.348887
     63 O10         3.2510    6.6410   -2.1080 o         1 MOL     -0.498018
     64 C21         1.2300    4.3520   -3.4570 c3        1 MOL     -0.245520
     65 C22         1.0330    2.8110   -3.6090 c         1 MOL      0.622866
     66 O11        -0.0030    2.2060   -3.1940 o         1 MOL     -0.607654
     67 O12         1.9370    2.1960   -4.2280 o         1 MOL     -0.607654
     68 H28         3.5810    4.5450   -1.4690 hn        1 MOL      0.284598
     69 H29         0.8240    4.7930   -1.3820 h1        1 MOL     -0.109095
     70 H30         2.0570    4.6060   -4.1160 hc        1 MOL      0.041221
     71 H31         0.3230    4.8360   -3.8120 hc        1 MOL      0.041221
     72 N7          1.0880    7.3210   -2.0970 n         1 MOL     -0.387944
     73 C23        -0.2960    7.1500   -2.1920 c3        1 MOL      0.025095
     74 C24        -0.9760    6.4840   -0.9540 c         1 MOL      0.534382
     75 O13        -0.6040    6.7360    0.1910 o         1 MOL     -0.489264
     76 H32         1.4040    8.2780   -2.1370 hn        1 MOL      0.319558
     77 H33        -0.4620    6.5130   -3.0550 h1        1 MOL      0.037897
     78 H34        -0.7880    8.1030   -2.3760 h1        1 MOL      0.037897
     79 N8         -1.9730    5.6100   -1.1980 n         1 MOL     -0.515768
     80 C25        -2.6750    4.8460   -0.1590 c3        1 MOL      0.030007
     81 C26        -1.7610    3.8290    0.4940 c         1 MOL      0.347554
     82 O14        -0.9330    3.2180   -0.1280 o         1 MOL     -0.574460
     83 C27        -3.9830    4.3170   -0.7290 c3        1 MOL      0.194243
     84 C28        -4.7200    3.4930    0.3770 c3        1 MOL     -0.187361
     85 O15        -3.8180    3.5270   -1.8320 oh        1 MOL     -0.563873
     86 H35        -2.2750    5.6320   -2.1640 hn        1 MOL      0.282715
     87 H36        -3.0340    5.4510    0.6710 h1        1 MOL      0.079064
     88 H37        -4.6230    5.1690   -0.9200 h1        1 MOL      0.037870
     89 H38        -3.6650    4.2380   -2.4620 ho        1 MOL      0.402092
     90 H39        -5.4270    4.0420    0.9920 hc        1 MOL      0.064537
     91 H40        -5.2850    2.6830   -0.0790 hc        1 MOL      0.064537
     92 H41        -4.0530    2.9610    1.0530 hc        1 MOL      0.064537
     93 N9         -1.9440    3.6810    1.7470 n         1 MOL     -0.239556
     94 C29        -1.2840    2.7180    2.6490 c3        1 MOL     -0.120759
     95 C30        -1.7960    1.2900    2.3130 c         1 MOL      0.872699
     96 O16        -1.5580    0.8000    1.2440 o         1 MOL     -0.604555
     97 C31         0.2440    2.7970    2.7320 c3        1 MOL      0.057741
     98 C32         0.8190    4.2110    2.8990 c3        1 MOL     -0.157337
     99 C33         0.7580    1.9910    3.9550 c3        1 MOL     -0.323976
    100 C34         1.9620    4.4610    1.8760 c3        1 MOL     -0.071258
    101 H42        -2.5580    4.3440    2.1990 hn        1 MOL      0.253931
    102 H43        -1.5980    2.9640    3.6620 h1        1 MOL      0.042975
    103 H44         0.7240    2.3480    1.8700 hc        1 MOL      0.048192
    104 H45         1.1560    4.4710    3.9050 hc        1 MOL      0.070433
    105 H46         0.0770    4.9960    2.7980 hc        1 MOL      0.070433
    106 H47         0.3390    0.9890    4.0530 hc        1 MOL      0.087454
    107 H48         1.8500    1.8690    3.9290 hc        1 MOL      0.087454
    108 H49         0.7250    2.5460    4.8960 hc        1 MOL      0.087454
    109 H50         1.6030    4.3410    0.8510 hc        1 MOL      0.031906
    110 H51         2.2750    5.4940    2.0510 hc        1 MOL      0.031906
    111 H52         2.8330    3.8220    1.9690 hc        1 MOL      0.031906
    112 N10        -2.5700    0.6900    3.2470 n         1 MOL     -0.700629
    113 C35        -2.8960   -0.7460    3.2890 c3        1 MOL      0.052098
    114 C36        -4.4380   -1.0640    3.2770 c         1 MOL      0.445880
    115 O17        -4.8300   -2.1970    3.4780 o         1 MOL     -0.520017
    116 C37        -2.0840   -1.4650    4.4160 c3        1 MOL      0.380674
    117 C38        -2.4360   -0.9790    5.8200 c3        1 MOL     -0.209478
    118 O18        -0.7080   -1.1150    4.3490 oh        1 MOL     -0.606667
    119 H53        -2.9330    1.2390    4.0130 hn        1 MOL      0.333347
    120 H54        -2.6110   -1.1670    2.3230 h1        1 MOL      0.073914
    121 H55        -2.2330   -2.5360    4.2450 h1        1 MOL      0.005123
    122 H56        -0.4570   -1.4830    3.4940 ho        1 MOL      0.387911
    123 H57        -2.4390    0.1160    5.8220 hc        1 MOL      0.046686
    124 H58        -3.4690   -1.1930    6.0830 hc        1 MOL      0.046686
    125 H59        -1.8250   -1.4780    6.5640 hc        1 MOL      0.046686
    126 N11        -5.2850   -0.0130    3.1050 n         1 MOL     -0.225997
    127 C39        -6.7340   -0.2800    2.8110 c3        1 MOL     -0.035860
    128 C40        -6.8310   -0.6420    1.3670 c         1 MOL      0.338131
    129 O19        -7.1010    0.1860    0.4480 o         1 MOL     -0.507998
    130 C41        -7.6900    0.8990    3.0970 c3        1 MOL      0.408834
    131 C42        -7.8520    1.1150    4.5380 c3        1 MOL     -0.257479
    132 O20        -7.1610    2.1060    2.5580 oh        1 MOL     -0.577304
    133 H60        -5.0100    0.9420    3.2670 hn        1 MOL      0.210890
    134 H61        -7.1390   -1.0780    3.4130 h1        1 MOL      0.061361
    135 H62        -8.6670    0.7060    2.6530 h1        1 MOL      0.013327
    136 H63        -6.9410    2.0100    1.6320 ho        1 MOL      0.320330
    137 H64        -6.8730    1.2860    4.9800 hc        1 MOL      0.057773
    138 H65        -8.5380    1.9490    4.6920 hc        1 MOL      0.057773
    139 H66        -8.1600    0.1670    4.9640 hc        1 MOL      0.057773
    140 N12        -6.6850   -1.9340    1.1180 n         1 MOL     -0.411306
    141 C43        -6.5040   -2.5970   -0.1880 c3        1 MOL      0.120437
    142 C44        -5.1230   -2.2550   -0.7670 c         1 MOL      0.495010
    143 O21        -4.4760   -1.2480   -0.4490 o         1 MOL     -0.400692
    144 C45        -7.6590   -2.3850   -1.2100 c3        1 MOL     -0.497055
    145 C46        -9.0010   -2.9710   -0.8860 c3        1 MOL      0.405820
    146 C47       -10.0160   -2.7490   -2.0290 c3        1 MOL     -0.000973
    147 C48       -11.4210   -2.7220   -1.4960 c3        1 MOL     -0.109551
    148 N13       -11.9340   -4.0830   -1.1560 n4        1 MOL     -0.116059
    149 H67        -6.4580   -2.4080    1.9910 hn        1 MOL      0.290141
    150 H68        -6.5260   -3.6590    0.0720 h1        1 MOL      0.060952
    151 H69        -7.3550   -2.7900   -2.1760 hc        1 MOL      0.153911
    152 H70        -7.7860   -1.3220   -1.4060 hc        1 MOL      0.153911
    153 H71        -9.3860   -2.7270    0.1030 hc        1 MOL     -0.082231
    154 H72        -8.9170   -4.0610   -0.8000 hc        1 MOL     -0.082231
    155 H73        -9.9010   -3.5250   -2.7880 hc        1 MOL      0.023565
    156 H74        -9.7530   -1.8040   -2.4970 hc        1 MOL      0.023565
    157 H75       -12.1590   -2.2650   -2.1550 hx        1 MOL      0.111083
    158 H76       -11.2600   -2.0670   -0.6400 hx        1 MOL      0.111083
    159 H77       -12.0920   -4.6470   -1.9720 hn        1 MOL      0.184448
    160 H78       -11.4370   -4.6830   -0.5050 hn        1 MOL      0.184448
    161 H79       -12.8390   -4.0020   -0.6930 hn        1 MOL      0.184448
    162 N14        -4.4880   -3.2250   -1.4540 n         1 MOL     -0.502633
    163 C49        -3.1790   -3.0380   -2.1170 c3        1 MOL      0.318614
    164 C50        -1.9850   -2.5880   -1.2710 c         1 MOL      0.191202
    165 O22        -1.2720   -1.6670   -1.6620 o         1 MOL     -0.485409
    166 C51        -2.8330   -4.3560   -2.8700 c3        1 MOL     -0.176725
    167 C52        -3.5640   -4.5450   -4.1890 c3        1 MOL     -0.222245
    168 C53        -3.0690   -5.7740   -4.9070 c         1 MOL      0.739066
    169 O23        -2.2890   -5.5810   -5.8300 o         1 MOL     -0.651550
    170 O24        -3.4230   -6.8860   -4.5470 o         1 MOL     -0.651550
    171 H80        -5.0840   -4.0330   -1.6120 hn        1 MOL      0.295158
    172 H81        -3.4100   -2.2840   -2.8720 h1        1 MOL      0.076932
    173 H82        -3.0010   -5.2610   -2.2890 hc        1 MOL      0.113049
    174 H83        -1.7980   -4.3470   -3.1930 hc        1 MOL      0.113049
    175 H84        -3.4060   -3.6550   -4.8050 hc        1 MOL      0.018714
    176 H85        -4.6450   -4.5490   -4.1010 hc        1 MOL      0.018714
    177 N15        -1.6600   -3.1700   -0.0320 n         1 MOL     -0.185813
    178 C54        -2.2000   -4.4430    0.4810 c3        1 MOL      0.011821
    179 H86        -1.4800   -4.8930    1.1660 h1        1 MOL      0.010307
    180 H87        -3.1360   -4.2550    1.0080 h1        1 MOL      0.010307
    181 H88        -2.3830   -5.1230   -0.3510 h1        1 MOL      0.010307
    182 H89        -0.8770   -2.7730    0.4690 hn        1 MOL      0.278507
    183 Ca1        -0.4990    0.7210   -1.1390 Ca        1 MOL      1.737534
    184 O25        -2.0140    0.6280   -3.6460 oh        1 MOL     -0.819185
    185 H90        -1.3510    1.2090   -4.0160 ho        1 MOL      0.373469
    186 H91        -2.8460    1.0760   -3.8160 ho        1 MOL      0.373469
    187 O26        -3.1990    0.8640   -1.0800 oh        1 MOL     -0.819185
    188 H92        -3.6160   -0.0040   -1.0610 ho        1 MOL      0.373469
    189 H93        -3.9160    1.4760   -1.1940 ho        1 MOL      0.373469
    190 O27         1.5520   -0.1560   -2.5800 oh        1 MOL     -0.819185
    191 H94         2.3320   -0.0930   -2.0390 ho        1 MOL      0.373469
    192 H95         1.5820    0.6150   -3.1450 ho        1 MOL      0.373469
@<TRIPOS>BOND
     1    1    2 1   
     2    1    4 1   
     3    1    5 1   
     4    1    6 1   
     5    2    3 2   
     6    2    7 1   
     7    7    8 1   
     8    7   15 1   
     9    8    9 1   
    10    8   11 1   
    11    8   16 1   
    12    9   10 2   
    13    9   19 1   
    14   11   12 1   
    15   11   17 1   
    16   11   18 1   
    17   12   13 1   
    18   12   14 1   
    19   19   20 1   
    20   19   28 1   
    21   20   21 1   
    22   20   23 1   
    23   20   29 1   
    24   21   22 2   
    25   21   41 1   
    26   23   24 1   
    27   23   30 1   
    28   23   31 1   
    29   24   25 1   
    30   24   32 1   
    31   24   33 1   
    32   25   26 1   
    33   25   34 1   
    34   25   35 1   
    35   26   27 1   
    36   26   36 1   
    37   26   37 1   
    38   27   38 1   
    39   27   39 1   
    40   27   40 1   
    41   41   42 1   
    42   41   49 1   
    43   42   43 1   
    44   42   45 1   
    45   42   50 1   
    46   43   44 2   
    47   43   53 1   
    48   45   46 1   
    49   45   51 1   
    50   45   52 1   
    51   46   47 1   
    52   46   48 1   
    53   53   54 1   
    54   53   57 1   
    55   54   55 1   
    56   54   58 1   
    57   54   59 1   
    58   55   56 2   
    59   55   60 1   
    60   60   61 1   
    61   60   68 1   
    62   61   62 1   
    63   61   64 1   
    64   61   69 1   
    65   62   63 2   
    66   62   72 1   
    67   64   65 1   
    68   64   70 1   
    69   64   71 1   
    70   65   66 1   
    71   65   67 1   
    72   72   73 1   
    73   72   76 1   
    74   73   74 1   
    75   73   77 1   
    76   73   78 1   
    77   74   75 2   
    78   74   79 1   
    79   79   80 1   
    80   79   86 1   
    81   80   81 1   
    82   80   83 1   
    83   80   87 1   
    84   81   82 2   
    85   81   93 1   
    86   83   84 1   
    87   83   85 1   
    88   83   88 1   
    89   84   90 1   
    90   84   91 1   
    91   84   92 1   
    92   85   89 1   
    93   93   94 1   
    94   93  101 1   
    95   94   95 1   
    96   94   97 1   
    97   94  102 1   
    98   95   96 2   
    99   95  112 1   
   100   97   98 1   
   101   97   99 1   
   102   97  103 1   
   103   98  100 1   
   104   98  104 1   
   105   98  105 1   
   106   99  106 1   
   107   99  107 1   
   108   99  108 1   
   109  100  109 1   
   110  100  110 1   
   111  100  111 1   
   112  112  113 1   
   113  112  119 1   
   114  113  114 1   
   115  113  116 1   
   116  113  120 1   
   117  114  115 2   
   118  114  126 1   
   119  116  117 1   
   120  116  118 1   
   121  116  121 1   
   122  117  123 1   
   123  117  124 1   
   124  117  125 1   
   125  118  122 1   
   126  126  127 1   
   127  126  133 1   
   128  127  128 1   
   129  127  130 1   
   130  127  134 1   
   131  128  129 2   
   132  128  140 1   
   133  130  131 1   
   134  130  132 1   
   135  130  135 1   
   136  131  137 1   
   137  131  138 1   
   138  131  139 1   
   139  132  136 1   
   140  140  141 1   
   141  140  149 1   
   142  141  142 1   
   143  141  144 1   
   144  141  150 1   
   145  142  143 2   
   146  142  162 1   
   147  144  145 1   
   148  144  151 1   
   149  144  152 1   
   150  145  146 1   
   151  145  153 1   
   152  145  154 1   
   153  146  147 1   
   154  146  155 1   
   155  146  156 1   
   156  147  148 1   
   157  147  157 1   
   158  147  158 1   
   159  148  159 1   
   160  148  160 1   
   161  148  161 1   
   162  162  163 1   
   163  162  171 1   
   164  163  164 1   
   165  163  166 1   
   166  163  172 1   
   167  164  165 2   
   168  164  177 1   
   169  166  167 1   
   170  166  173 1   
   171  166  174 1   
   172  167  168 1   
   173  167  175 1   
   174  167  176 1   
   175  168  169 1   
   176  168  170 1   
   177  177  178 1   
   178  177  182 1   
   179  178  179 1   
   180  178  180 1   
   181  178  181 1   
   182  184  185 1   
   183  184  186 1   
   184  187  188 1   
   185  187  189 1   
   186  190  191 1   
   187  190  192 1   
@<TRIPOS>SUBSTRUCTURE
     1 MOL         1 TEMP              0 ****  ****    0 ROOT
