@<TRIPOS>MOLECULE
MOL
  178   175     1     0     0
SMALL
resp


@<TRIPOS>ATOM
      1 C1          1.3630    7.3490   -1.2370 c3        1 MOL     -0.350518
      2 C2          2.7600    6.8090   -0.9520 c         1 MOL      0.702782
      3 O1          3.3790    7.2870    0.0110 o         1 MOL     -0.617080
      4 H1          0.9110    7.6930   -0.3070 hc        1 MOL      0.086342
      5 H2          1.4310    8.1810   -1.9380 hc        1 MOL      0.086342
      6 H3          0.7490    6.5590   -1.6680 hc        1 MOL      0.086342
      7 N1          3.2610    5.9350   -1.7550 n         1 MOL     -0.618548
      8 C3          4.4800    5.1570   -1.5270 c3        1 MOL      0.271675
      9 C4          4.3510    4.1300   -0.4190 c         1 MOL      0.532097
     10 O2          3.7640    3.0830   -0.5740 o         1 MOL     -0.516532
     11 C5          4.9440    4.3850   -2.7670 c3        1 MOL     -0.386712
     12 C6          6.3460    3.6460   -2.6140 c         1 MOL      0.754258
     13 O3          6.7280    2.8170   -3.5070 o         1 MOL     -0.738126
     14 O4          7.0100    3.8590   -1.5740 o         1 MOL     -0.738126
     15 H4          2.7370    5.7900   -2.6040 hn        1 MOL      0.323322
     16 H5          5.3230    5.7840   -1.2470 h1        1 MOL      0.018741
     17 H6          5.0160    5.0690   -3.6060 hc        1 MOL      0.060084
     18 H7          4.2670    3.5940   -3.0670 hc        1 MOL      0.060084
     19 N2          4.9130    4.5100    0.7170 n         1 MOL     -0.362992
     20 C7          4.8690    3.7650    2.0130 c3        1 MOL      0.210174
     21 C8          3.4530    3.3570    2.4380 c         1 MOL      0.388964
     22 O5          2.5090    4.0900    2.1170 o         1 MOL     -0.523185
     23 C9          5.5520    4.6260    3.0850 c3        1 MOL     -0.288469
     24 H8          5.2830    5.4530    0.7650 hn        1 MOL      0.251147
     25 H9          5.3940    2.8230    1.8400 h1        1 MOL      0.030880
     26 H10         5.8400    4.0440    3.9530 hc        1 MOL      0.079349
     27 H11         6.5010    5.0810    2.7850 hc        1 MOL      0.079349
     28 H12         4.9280    5.4190    3.4970 hc        1 MOL      0.079349
     29 N3          3.1140    2.2130    3.0550 n         1 MOL     -0.288754
     30 C10         3.9210    1.0100    3.3930 c3        1 MOL      0.009049
     31 C11         3.9400   -0.0100    2.1980 c         1 MOL      0.724985
     32 O6          3.0500   -0.0420    1.3630 o         1 MOL     -0.598348
     33 C12         3.3990    0.3440    4.6380 c3        1 MOL     -0.333944
     34 C13         1.8690    0.0680    4.7530 c         1 MOL      0.741587
     35 O7          1.0010    0.5560    4.0270 o         1 MOL     -0.681590
     36 O8          1.5540   -0.6670    5.7750 o         1 MOL     -0.681590
     37 H13         2.1280    2.0790    3.2480 hn        1 MOL      0.211018
     38 H14         4.9100    1.3580    3.6830 h1        1 MOL      0.064377
     39 H15         3.7760    0.9600    5.4520 hc        1 MOL      0.074069
     40 H16         4.0020   -0.5520    4.8230 hc        1 MOL      0.074069
     41 N4          4.9140   -0.9010    2.1570 n         1 MOL     -0.855906
     42 C14         5.2410   -1.7490    1.0200 c3        1 MOL      0.467507
     43 C15         6.4060   -1.2270    0.1650 c         1 MOL      0.350980
     44 O9          6.9100   -0.0970    0.3250 o         1 MOL     -0.435577
     45 H17         5.5690   -0.9450    2.9330 hn        1 MOL      0.358671
     46 H18         4.3260   -1.8360    0.4340 h1        1 MOL     -0.011655
     47 H19         5.4330   -2.7710    1.3430 h1        1 MOL     -0.011655
     48 N5          6.8960   -2.0420   -0.7900 n         1 MOL     -0.419243
     49 C16         6.5750   -3.3890   -1.1880 c3        1 MOL      0.018362
     50 C17         5.4980   -3.4810   -2.3200 c         1 MOL      0.621777
     51 O10         5.2370   -4.5880   -2.8130 o         1 MOL     -0.545411
     52 C18         7.8620   -4.0470   -1.7340 c3        1 MOL     -0.465304
     53 C19         9.0140   -4.0370   -0.7900 c         1 MOL      0.786165
     54 N6         10.0420   -3.2630   -1.0580 n         1 MOL     -0.848106
     55 O11         9.0980   -4.6370    0.2520 o         1 MOL     -0.577574
     56 H20         7.4980   -1.4930   -1.3790 hn        1 MOL      0.277214
     57 H21         6.1850   -3.9330   -0.3250 h1        1 MOL      0.092630
     58 H22         8.1930   -3.6500   -2.6900 hc        1 MOL      0.126367
     59 H23         7.6980   -5.1230   -1.8620 hc        1 MOL      0.126367
     60 H24         9.8730   -2.6040   -1.8130 hn        1 MOL      0.383343
     61 H25        10.9110   -3.3170   -0.5550 hn        1 MOL      0.383343
     62 N7          4.7680   -2.4190   -2.6850 n         1 MOL     -0.368255
     63 C20         3.5570   -2.5100   -3.4930 c3        1 MOL     -0.338566
     64 C21         2.3210   -3.1870   -2.8540 c         1 MOL      0.623025
     65 O12         1.2800   -3.2040   -3.4840 o         1 MOL     -0.556511
     66 H26         5.0260   -1.5120   -2.3130 hn        1 MOL      0.325146
     67 H27         3.7530   -3.1160   -4.3720 h1        1 MOL      0.173920
     68 H28         3.2350   -1.4910   -3.7190 h1        1 MOL      0.173920
     69 N8          2.4720   -3.7770   -1.6640 n         1 MOL     -0.206385
     70 C22         1.4040   -4.4710   -0.9250 c3        1 MOL     -0.113421
     71 C23         0.1780   -3.5740   -0.5960 c         1 MOL      0.629226
     72 O13         0.2770   -2.5020    0.1030 o         1 MOL     -0.625574
     73 C24         1.9760   -5.0180    0.3680 c3        1 MOL      0.130379
     74 C25         2.7620   -6.3340    0.2150 c3        1 MOL     -0.220128
     75 O14         2.8850   -4.0920    1.0770 oh        1 MOL     -0.549072
     76 H29         3.3560   -3.6930   -1.1980 hn        1 MOL      0.143841
     77 H30         0.9520   -5.3320   -1.4080 h1        1 MOL      0.091181
     78 H31         1.1960   -5.2610    1.0890 h1        1 MOL      0.086247
     79 H32         3.3540   -4.6310    1.7170 ho        1 MOL      0.380500
     80 H33         3.1040   -6.7740    1.1560 hc        1 MOL      0.069579
     81 H34         2.2100   -7.1390   -0.2560 hc        1 MOL      0.069579
     82 H35         3.5830   -6.1590   -0.4730 hc        1 MOL      0.069579
     83 N9         -0.9340   -3.8950   -1.2360 n         1 MOL     -0.437506
     84 C26        -2.2960   -3.2640   -1.3020 c3        1 MOL     -0.144909
     85 C27        -3.0630   -3.4750    0.0290 c         1 MOL      0.525819
     86 O15        -3.3270   -4.6050    0.3840 o         1 MOL     -0.561734
     87 C28        -3.1010   -3.9380   -2.4970 c3        1 MOL      0.381860
     88 C29        -4.4930   -3.4470   -2.6180 c3        1 MOL     -0.216207
     89 C30        -2.3730   -3.8380   -3.8550 c3        1 MOL     -0.344684
     90 C31        -4.6280   -1.9340   -2.9020 c3        1 MOL     -0.074706
     91 H36        -0.8540   -4.6910   -1.8610 hn        1 MOL      0.263489
     92 H37        -2.1860   -2.2080   -1.5400 h1        1 MOL      0.247520
     93 H38        -3.1710   -4.9920   -2.2730 hc        1 MOL     -0.059834
     94 H39        -4.9920   -3.6620   -1.6780 hc        1 MOL      0.045555
     95 H40        -4.9980   -3.9890   -3.4330 hc        1 MOL      0.045555
     96 H41        -1.4760   -4.4420   -3.9340 hc        1 MOL      0.078239
     97 H42        -3.0380   -4.1870   -4.6450 hc        1 MOL      0.078239
     98 H43        -2.0900   -2.7820   -3.9190 hc        1 MOL      0.078239
     99 H44        -4.0430   -1.7380   -3.7950 hc        1 MOL      0.018051
    100 H45        -5.6640   -1.5790   -2.9370 hc        1 MOL      0.018051
    101 H46        -4.1700   -1.3700   -2.0880 hc        1 MOL      0.018051
    102 N10        -3.3530   -2.3620    0.7720 n         1 MOL     -0.155263
    103 C32        -4.1820   -2.3350    2.0230 c3        1 MOL     -0.034326
    104 C33        -5.3350   -1.2860    2.0130 c         1 MOL      0.446914
    105 O16        -6.2070   -1.3390    2.8640 o         1 MOL     -0.563648
    106 C34        -3.3610   -2.3950    3.2680 c3        1 MOL     -0.295641
    107 C35        -2.1290   -1.5080    3.0810 c         1 MOL      0.856320
    108 O17        -0.9820   -2.0040    3.2290 o         1 MOL     -0.755490
    109 O18        -2.2530   -0.2450    2.9620 o         1 MOL     -0.755490
    110 H47        -3.0100   -1.4440    0.5000 hn        1 MOL      0.043583
    111 H48        -4.6880   -3.2990    1.9360 h1        1 MOL      0.111834
    112 H49        -3.0380   -3.4270    3.3890 hc        1 MOL      0.087782
    113 H50        -3.8800   -2.0200    4.1510 hc        1 MOL      0.087782
    114 N11        -5.5210   -0.3680    1.0450 n         1 MOL     -0.230209
    115 C36        -6.7400    0.5180    0.8570 c3        1 MOL      0.508835
    116 C37        -6.2360    1.8670    0.2610 c         1 MOL      0.157228
    117 O19        -6.6750    2.2900   -0.8050 o         1 MOL     -0.480908
    118 C38        -7.7120   -0.1270   -0.1280 c3        1 MOL     -0.473295
    119 C39        -8.3220   -1.5030    0.2300 ca        1 MOL      0.243953
    120 C40        -7.5500   -2.6350   -0.1320 ca        1 MOL     -0.200459
    121 C41        -9.6210   -1.6160    0.7090 ca        1 MOL     -0.200459
    122 C42        -8.1310   -3.8690    0.2090 ca        1 MOL     -0.079296
    123 C43       -10.2520   -2.8230    0.8970 ca        1 MOL     -0.079296
    124 C44        -9.4740   -3.9900    0.6810 ca        1 MOL     -0.198883
    125 H51        -4.7620   -0.2670    0.3910 hn        1 MOL      0.199767
    126 H52        -7.1410    0.7390    1.8500 h1        1 MOL     -0.034939
    127 H53        -7.2080   -0.2990   -1.0720 hc        1 MOL      0.123751
    128 H54        -8.4710    0.6170   -0.3560 hc        1 MOL      0.123751
    129 H55        -6.5100   -2.5200   -0.4160 ha        1 MOL      0.108097
    130 H56       -10.1730   -0.7240    0.9780 ha        1 MOL      0.108097
    131 H57        -7.4500   -4.7020    0.1410 ha        1 MOL      0.097709
    132 H58       -11.2910   -2.8570    1.1970 ha        1 MOL      0.097709
    133 H59        -9.8230   -4.9800    0.9500 ha        1 MOL      0.114050
    134 N12        -5.3350    2.5890    0.9520 n         1 MOL     -0.059526
    135 C45        -4.9030    3.9580    0.5310 c3        1 MOL     -0.019663
    136 C46        -4.2610    4.1860   -0.8330 c         1 MOL      0.293455
    137 O20        -4.1340    5.2680   -1.3860 o         1 MOL     -0.528263
    138 C47        -3.8820    4.4020    1.5850 c3        1 MOL     -0.079295
    139 C48        -4.2100    3.5910    2.8300 c3        1 MOL     -0.044230
    140 C49        -4.6940    2.3360    2.1910 c3        1 MOL     -0.113968
    141 H60        -5.7600    4.6320    0.5680 h1        1 MOL      0.093223
    142 H61        -2.8670    4.1210    1.3290 hc        1 MOL      0.049658
    143 H62        -3.9310    5.4730    1.8190 hc        1 MOL      0.049658
    144 H63        -3.3430    3.3920    3.4580 hc        1 MOL      0.025728
    145 H64        -5.0220    4.0390    3.4020 hc        1 MOL      0.025728
    146 H65        -3.7550    1.8950    1.8820 h1        1 MOL      0.093845
    147 H66        -5.2280    1.7440    2.9390 h1        1 MOL      0.093845
    148 N13        -3.8420    3.0920   -1.4430 n         1 MOL      0.145436
    149 C50        -3.3120    3.0800   -2.7690 c3        1 MOL     -0.207669
    150 C51        -4.4910    3.2770   -3.7210 c         1 MOL      0.464387
    151 O21        -4.6850    4.3020   -4.3800 o         1 MOL     -0.530334
    152 C52        -2.4140    1.8380   -3.0960 c3        1 MOL     -0.119984
    153 C53        -1.4060    1.5280   -1.9510 c3        1 MOL     -0.053042
    154 C54        -2.0010    0.6000   -0.9130 c         1 MOL      0.772028
    155 O22        -1.1630   -0.0700   -0.2400 o         1 MOL     -0.770388
    156 O23        -3.2170    0.4200   -0.6620 o         1 MOL     -0.770388
    157 H67        -3.9360    2.2260   -0.9240 hn        1 MOL      0.171988
    158 H68        -2.7180    3.9810   -2.8790 h1        1 MOL      0.105391
    159 H69        -1.8210    2.1720   -3.9510 hc        1 MOL      0.035107
    160 H70        -3.0040    0.9450   -3.2310 hc        1 MOL      0.035107
    161 H71        -1.2480    2.4490   -1.3810 hc        1 MOL      0.036986
    162 H72        -0.5440    1.0100   -2.3690 hc        1 MOL      0.036986
    163 N14        -5.4010    2.3240   -3.7580 n         1 MOL     -0.225401
    164 C55        -6.6630    2.3720   -4.5030 c3        1 MOL     -0.278068
    165 H73        -7.3230    3.1140   -4.0510 h1        1 MOL      0.110125
    166 H74        -6.4640    2.6460   -5.5390 h1        1 MOL      0.110125
    167 H75        -7.1420    1.3940   -4.4710 h1        1 MOL      0.110125
    168 H76        -5.2200    1.5240   -3.1760 hn        1 MOL      0.226009
    169 Ca1         0.4080   -0.3820    1.6890 Ca        1 MOL      1.741801
    170 O24        -1.1340    2.0920    2.0740 oh        1 MOL     -0.804021
    171 H77        -1.1470    2.7780    2.7530 ho        1 MOL      0.393411
    172 H78        -1.7620    1.4380    2.3900 ho        1 MOL      0.393411
    173 O25         1.8900   -2.3680    2.8830 oh        1 MOL     -0.804021
    174 H79         2.3480   -2.7540    3.6260 ho        1 MOL      0.393411
    175 H80         2.1560   -2.8980    2.1330 ho        1 MOL      0.393411
    176 O26         1.3170    2.0280    0.1750 oh        1 MOL     -0.804021
    177 H81         1.2740    2.7500    0.8120 ho        1 MOL      0.393411
    178 H82         2.0570    2.2560   -0.3910 ho        1 MOL      0.393411
@<TRIPOS>BOND
     1    1    2 1   
     2    1    4 1   
     3    1    5 1   
     4    1    6 1   
     5    2    3 2   
     6    2    7 1   
     7    7    8 1   
     8    7   15 1   
     9    8    9 1   
    10    8   11 1   
    11    8   16 1   
    12    9   10 2   
    13    9   19 1   
    14   11   12 1   
    15   11   17 1   
    16   11   18 1   
    17   12   13 1   
    18   12   14 1   
    19   19   20 1   
    20   19   24 1   
    21   20   21 1   
    22   20   23 1   
    23   20   25 1   
    24   21   22 2   
    25   21   29 1   
    26   23   26 1   
    27   23   27 1   
    28   23   28 1   
    29   29   30 1   
    30   29   37 1   
    31   30   31 1   
    32   30   33 1   
    33   30   38 1   
    34   31   32 2   
    35   31   41 1   
    36   33   34 1   
    37   33   39 1   
    38   33   40 1   
    39   34   35 1   
    40   34   36 1   
    41   41   42 1   
    42   41   45 1   
    43   42   43 1   
    44   42   46 1   
    45   42   47 1   
    46   43   44 2   
    47   43   48 1   
    48   48   49 1   
    49   48   56 1   
    50   49   50 1   
    51   49   52 1   
    52   49   57 1   
    53   50   51 2   
    54   50   62 1   
    55   52   53 1   
    56   52   58 1   
    57   52   59 1   
    58   53   54 1   
    59   53   55 2   
    60   54   60 1   
    61   54   61 1   
    62   62   63 1   
    63   62   66 1   
    64   63   64 1   
    65   63   67 1   
    66   63   68 1   
    67   64   65 2   
    68   64   69 1   
    69   69   70 1   
    70   69   76 1   
    71   70   71 1   
    72   70   73 1   
    73   70   77 1   
    74   71   72 2   
    75   71   83 1   
    76   73   74 1   
    77   73   75 1   
    78   73   78 1   
    79   74   80 1   
    80   74   81 1   
    81   74   82 1   
    82   75   79 1   
    83   83   84 1   
    84   83   91 1   
    85   84   85 1   
    86   84   87 1   
    87   84   92 1   
    88   85   86 2   
    89   85  102 1   
    90   87   88 1   
    91   87   89 1   
    92   87   93 1   
    93   88   90 1   
    94   88   94 1   
    95   88   95 1   
    96   89   96 1   
    97   89   97 1   
    98   89   98 1   
    99   90   99 1   
   100   90  100 1   
   101   90  101 1   
   102  102  103 1   
   103  102  110 1   
   104  103  104 1   
   105  103  106 1   
   106  103  111 1   
   107  104  105 2   
   108  104  114 1   
   109  106  107 1   
   110  106  112 1   
   111  106  113 1   
   112  107  108 1   
   113  107  109 1   
   114  114  115 1   
   115  114  125 1   
   116  115  116 1   
   117  115  118 1   
   118  115  126 1   
   119  116  117 2   
   120  116  134 1   
   121  118  119 1   
   122  118  127 1   
   123  118  128 1   
   124  119  120 ar  
   125  119  121 ar  
   126  120  122 ar  
   127  120  129 1   
   128  121  123 ar  
   129  121  130 1   
   130  122  124 ar  
   131  122  131 1   
   132  123  124 ar  
   133  123  132 1   
   134  124  133 1   
   135  134  135 1   
   136  134  140 1   
   137  135  136 1   
   138  135  138 1   
   139  135  141 1   
   140  136  137 2   
   141  136  148 1   
   142  138  139 1   
   143  138  142 1   
   144  138  143 1   
   145  139  140 1   
   146  139  144 1   
   147  139  145 1   
   148  140  146 1   
   149  140  147 1   
   150  148  149 1   
   151  148  157 1   
   152  149  150 1   
   153  149  152 1   
   154  149  158 1   
   155  150  151 2   
   156  150  163 1   
   157  152  153 1   
   158  152  159 1   
   159  152  160 1   
   160  153  154 1   
   161  153  161 1   
   162  153  162 1   
   163  154  155 1   
   164  154  156 1   
   165  163  164 1   
   166  163  168 1   
   167  164  165 1   
   168  164  166 1   
   169  164  167 1   
   170  170  171 1   
   171  170  172 1   
   172  173  174 1   
   173  173  175 1   
   174  176  177 1   
   175  176  178 1   
@<TRIPOS>SUBSTRUCTURE
     1 MOL         1 TEMP              0 ****  ****    0 ROOT
