@<TRIPOS>MOLECULE
MOL
  192   187     1     0     0
SMALL
resp


@<TRIPOS>ATOM
      1 C1          9.5060    0.7300    2.1640 c3        1 MOL     -0.412652
      2 C2          8.2750    0.1600    1.3800 c         1 MOL      0.732976
      3 O1          7.2130   -0.0820    1.9620 o         1 MOL     -0.666800
      4 H1          9.4270    1.8160    2.2240 hc        1 MOL      0.104024
      5 H2          9.5230    0.3110    3.1700 hc        1 MOL      0.104024
      6 H3         10.4260    0.4620    1.6430 hc        1 MOL      0.104024
      7 N1          8.5100   -0.1590    0.0960 n         1 MOL     -0.472576
      8 C3          7.4030   -0.2110   -0.8190 c3        1 MOL     -0.048670
      9 C4          6.9620   -1.6740   -0.9380 c         1 MOL      0.628596
     10 O2          7.1410   -2.2710   -1.9610 o         1 MOL     -0.487238
     11 C5          7.7680    0.4160   -2.2160 c3        1 MOL     -0.109946
     12 C6          9.1150    0.0090   -2.8550 c         1 MOL      0.687818
     13 O3         10.1700    0.1820   -2.2490 o         1 MOL     -0.630881
     14 O4          9.1360   -0.2860   -4.0850 o         1 MOL     -0.630881
     15 H4          9.4480   -0.1100   -0.2820 hn        1 MOL      0.230415
     16 H5          6.5870    0.2950   -0.2900 h1        1 MOL      0.067524
     17 H6          7.6440    1.4980   -2.1990 hc        1 MOL      0.043868
     18 H7          6.9490    0.1810   -2.8900 hc        1 MOL      0.043868
     19 N2          6.5330   -2.2660    0.2160 n         1 MOL     -0.445553
     20 C7          6.0510   -3.6360    0.2190 c3        1 MOL      0.100906
     21 C8          4.5660   -3.9000   -0.3340 c         1 MOL      0.485371
     22 O5          4.3770   -4.9410   -1.0030 o         1 MOL     -0.528146
     23 C9          6.2710   -4.1520    1.6330 c3        1 MOL     -0.023802
     24 C10         7.5590   -3.8870    2.4700 c3        1 MOL     -0.038578
     25 C11         8.7220   -4.8140    2.1520 c3        1 MOL     -0.003263
     26 C12         9.9890   -4.4220    2.9200 c3        1 MOL     -0.074667
     27 N3          9.7870   -4.5410    4.3440 n4        1 MOL     -0.212689
     28 H8          6.6860   -1.8220    1.1110 hn        1 MOL      0.299876
     29 H9          6.6710   -4.2610   -0.4230 h1        1 MOL      0.048269
     30 H10         5.9430   -5.1960    1.7020 hc        1 MOL      0.013201
     31 H11         5.4310   -3.7300    2.1960 hc        1 MOL      0.013201
     32 H12         7.2360   -3.9610    3.5050 hc        1 MOL      0.002344
     33 H13         7.9230   -2.8750    2.2950 hc        1 MOL      0.002344
     34 H14         8.8310   -4.8750    1.0620 hc        1 MOL      0.047791
     35 H15         8.5780   -5.8390    2.4800 hc        1 MOL      0.047791
     36 H16        10.2800   -3.4460    2.5280 hx        1 MOL      0.107632
     37 H17        10.7980   -5.0980    2.6300 hx        1 MOL      0.107632
     38 H18        10.5730   -4.2890    4.9310 hn        1 MOL      0.264950
     39 H19         9.0510   -3.9160    4.6210 hn        1 MOL      0.264950
     40 H20         9.4410   -5.4420    4.6660 hn        1 MOL      0.264950
     41 N4          3.5680   -3.0030   -0.1240 n         1 MOL     -0.435104
     42 C13         3.6570   -1.7840    0.7410 c3        1 MOL      0.028744
     43 C14         3.8990   -0.4830   -0.0390 c         1 MOL      0.583454
     44 O6          4.0870   -0.6320   -1.2280 o         1 MOL     -0.499361
     45 C15         2.4590   -1.6200    1.7420 c3        1 MOL     -0.123720
     46 C16         1.1270   -1.6680    1.1070 c         1 MOL      0.686315
     47 O7          0.9560   -0.9250    0.1550 o         1 MOL     -0.707527
     48 O8          0.2400   -2.5100    1.4960 o         1 MOL     -0.707527
     49 H21         2.7420   -3.3020   -0.6210 hn        1 MOL      0.350237
     50 H22         4.5370   -1.8090    1.3880 h1        1 MOL      0.023459
     51 H23         2.4980   -0.6960    2.3160 hc        1 MOL      0.030154
     52 H24         2.4610   -2.4190    2.4770 hc        1 MOL      0.030154
     53 N5          3.9720    0.6710    0.6130 n         1 MOL     -0.365471
     54 C17         4.1990    2.0070   -0.0380 c3        1 MOL     -0.152586
     55 C18         2.9620    2.5330   -0.6730 c         1 MOL      0.559413
     56 O9          1.8530    2.0010   -0.5060 o         1 MOL     -0.693630
     57 H25         4.0340    0.7250    1.6200 hn        1 MOL      0.295265
     58 H26         4.8700    1.8400   -0.8730 h1        1 MOL      0.097312
     59 H27         4.5490    2.7680    0.6680 h1        1 MOL      0.097312
     60 N6          3.0420    3.6770   -1.2890 n         1 MOL     -0.260989
     61 C19         2.0790    4.5040   -1.9220 c3        1 MOL      0.022506
     62 C20         2.2950    6.0740   -1.7710 c         1 MOL      0.545009
     63 O10         3.4330    6.5610   -1.6460 o         1 MOL     -0.549797
     64 C21         2.0330    4.1710   -3.3610 c3        1 MOL     -0.344573
     65 C22         1.6020    2.7860   -3.5440 c         1 MOL      0.728800
     66 O11         0.4320    2.4180   -3.2250 o         1 MOL     -0.653644
     67 O12         2.3900    2.0740   -4.1980 o         1 MOL     -0.653644
     68 H28         3.9230    4.1690   -1.2690 hn        1 MOL      0.223186
     69 H29         1.1030    4.3950   -1.4570 h1        1 MOL      0.074257
     70 H30         3.0460    4.2030   -3.7580 hc        1 MOL      0.113530
     71 H31         1.4750    4.8470   -3.9990 hc        1 MOL      0.113530
     72 N7          1.3020    6.9370   -1.8940 n         1 MOL     -0.431803
     73 C23        -0.1170    6.6720   -2.1950 c3        1 MOL     -0.047971
     74 C24        -0.9080    6.0780   -0.9900 c         1 MOL      0.499866
     75 O13        -0.3850    6.2060    0.1360 o         1 MOL     -0.454585
     76 H32         1.5110    7.8830   -1.6180 hn        1 MOL      0.306949
     77 H33        -0.1960    6.0550   -3.0810 h1        1 MOL      0.076710
     78 H34        -0.5430    7.6100   -2.5570 h1        1 MOL      0.076710
     79 N8         -1.9610    5.3230   -1.2830 n         1 MOL     -0.552142
     80 C25        -2.7120    4.7680   -0.2320 c3        1 MOL     -0.129455
     81 C26        -1.8440    3.6880    0.4230 c         1 MOL      0.847920
     82 O14        -1.2620    2.8860   -0.3430 o         1 MOL     -0.768508
     83 C27        -4.1120    4.2600   -0.6750 c3        1 MOL      0.440502
     84 C28        -4.8440    3.6190    0.5660 c3        1 MOL     -0.295530
     85 O15        -4.1150    3.1930   -1.6030 oh        1 MOL     -0.591288
     86 H35        -2.2320    5.3820   -2.2440 hn        1 MOL      0.334617
     87 H36        -2.8710    5.6040    0.4470 h1        1 MOL      0.081323
     88 H37        -4.7410    5.0600   -1.0760 h1        1 MOL      0.010482
     89 H38        -3.3880    3.3430   -2.2080 ho        1 MOL      0.365719
     90 H39        -5.9030    3.6830    0.2990 hc        1 MOL      0.075596
     91 H40        -4.6170    2.5680    0.7560 hc        1 MOL      0.075596
     92 H41        -4.6760    4.2260    1.4620 hc        1 MOL      0.075596
     93 N9         -1.7890    3.6510    1.7490 n         1 MOL     -0.661523
     94 C29        -0.9940    2.6800    2.5280 c3        1 MOL      0.003223
     95 C30        -1.5130    1.2590    2.2490 c         1 MOL      0.315378
     96 O16        -1.1490    0.5950    1.2560 o         1 MOL     -0.384174
     97 C31         0.5340    2.8220    2.3930 c3        1 MOL      0.144486
     98 C32         0.9830    4.2780    2.7530 c3        1 MOL      0.140595
     99 C33         1.3370    1.8290    3.1990 c3        1 MOL     -0.376573
    100 C34         2.4200    4.6840    2.4670 c3        1 MOL     -0.074124
    101 H42        -2.2350    4.4260    2.2290 hn        1 MOL      0.344236
    102 H43        -1.0640    2.9100    3.5910 h1        1 MOL      0.056532
    103 H44         0.6930    2.5390    1.3550 hc        1 MOL      0.147898
    104 H45         0.8420    4.3210    3.8360 hc        1 MOL     -0.055953
    105 H46         0.3510    4.9960    2.2370 hc        1 MOL     -0.055953
    106 H47         0.9100    0.8310    3.1480 hc        1 MOL      0.086382
    107 H48         2.3880    1.8740    2.8900 hc        1 MOL      0.086382
    108 H49         1.3380    2.0560    4.2620 hc        1 MOL      0.086382
    109 H50         2.4290    5.3600    1.6110 hc        1 MOL      0.014339
    110 H51         2.8550    5.1310    3.3540 hc        1 MOL      0.014339
    111 H52         3.0210    3.8370    2.1230 hc        1 MOL      0.014339
    112 N10        -2.3070    0.7680    3.1830 n         1 MOL     -0.159845
    113 C35        -2.7250   -0.5990    3.1920 c3        1 MOL     -0.150709
    114 C36        -4.2310   -0.8860    3.3410 c         1 MOL      0.629972
    115 O17        -4.6230   -2.0360    3.4800 o         1 MOL     -0.534778
    116 C37        -1.9310   -1.4480    4.2100 c3        1 MOL      0.434280
    117 C38        -2.1090   -0.9680    5.6500 c3        1 MOL     -0.140375
    118 O18        -0.5440   -1.4050    3.8040 oh        1 MOL     -0.637546
    119 H53        -2.3000    1.2940    4.0490 hn        1 MOL      0.225144
    120 H54        -2.5280   -1.0310    2.2060 h1        1 MOL      0.063694
    121 H55        -2.2650   -2.4820    4.2470 h1        1 MOL     -0.001261
    122 H56        -0.5020   -1.8420    2.9480 ho        1 MOL      0.363993
    123 H57        -1.8410    0.0850    5.6750 hc        1 MOL      0.022943
    124 H58        -3.1550   -1.1340    5.9170 hc        1 MOL      0.022943
    125 H59        -1.5340   -1.5030    6.3950 hc        1 MOL      0.022943
    126 N11        -4.9870    0.2340    3.3470 n         1 MOL     -0.495126
    127 C39        -6.4270    0.1790    3.1070 c3        1 MOL     -0.045472
    128 C40        -6.7010   -0.2900    1.6340 c         1 MOL      0.598518
    129 O19        -6.8830    0.5250    0.7550 o         1 MOL     -0.497881
    130 C41        -7.0640    1.5330    3.3790 c3        1 MOL      0.553171
    131 C42        -8.6070    1.4730    3.2960 c3        1 MOL     -0.610546
    132 O20        -6.7740    1.9810    4.6620 oh        1 MOL     -0.610171
    133 H60        -4.5470    1.1470    3.4070 hn        1 MOL      0.207536
    134 H61        -6.8360   -0.5880    3.7750 h1        1 MOL      0.052609
    135 H62        -6.6470    2.2340    2.6660 h1        1 MOL     -0.066910
    136 H63        -5.8790    2.3340    4.6290 ho        1 MOL      0.368949
    137 H64        -9.0110    0.8420    4.0770 hc        1 MOL      0.166349
    138 H65        -8.9540    2.4940    3.4530 hc        1 MOL      0.166349
    139 H66        -8.8350    1.1410    2.2790 hc        1 MOL      0.166349
    140 N12        -6.6820   -1.6250    1.4360 n         1 MOL     -0.769986
    141 C43        -6.5270   -2.4250    0.2230 c3        1 MOL      0.077592
    142 C44        -5.1350   -2.1920   -0.3530 c         1 MOL      0.692675
    143 O21        -4.5450   -1.2060    0.0760 o         1 MOL     -0.487672
    144 C45        -7.7190   -2.1640   -0.7850 c3        1 MOL     -0.229550
    145 C46        -9.0990   -2.3650   -0.2710 c3        1 MOL      0.156375
    146 C47       -10.1560   -2.2600   -1.4330 c3        1 MOL     -0.091463
    147 C48       -11.5440   -2.5500   -0.9330 c3        1 MOL      0.194864
    148 N13       -12.5270   -2.7710   -1.9720 n4        1 MOL     -0.229147
    149 H67        -6.5000   -2.1370    2.2960 hn        1 MOL      0.382643
    150 H68        -6.5920   -3.4160    0.6910 h1        1 MOL      0.088270
    151 H69        -7.4940   -2.8370   -1.6100 hc        1 MOL      0.090187
    152 H70        -7.6400   -1.1630   -1.2100 hc        1 MOL      0.090187
    153 H71        -9.3730   -1.6000    0.4590 hc        1 MOL      0.001386
    154 H72        -9.1770   -3.3850    0.0990 hc        1 MOL      0.001386
    155 H73        -9.8810   -3.0440   -2.1320 hc        1 MOL      0.035250
    156 H74       -10.2060   -1.2450   -1.8160 hc        1 MOL      0.035250
    157 H75       -11.9210   -1.7070   -0.3490 hx        1 MOL      0.019549
    158 H76       -11.5390   -3.3640   -0.2160 hx        1 MOL      0.019549
    159 H77       -12.0570   -3.4180   -2.5890 hn        1 MOL      0.218453
    160 H78       -13.4240   -3.0440   -1.5850 hn        1 MOL      0.218453
    161 H79       -12.6750   -2.0640   -2.6760 hn        1 MOL      0.218453
    162 N14        -4.7280   -2.9550   -1.3240 n         1 MOL     -0.693682
    163 C49        -3.5200   -2.8110   -2.0900 c3        1 MOL      0.446207
    164 C50        -2.1850   -2.6410   -1.2820 c         1 MOL      0.007849
    165 O22        -1.3390   -1.8240   -1.5980 o         1 MOL     -0.411439
    166 C51        -3.4190   -3.9940   -3.0650 c3        1 MOL      0.331622
    167 C52        -4.5710   -3.7880   -4.0890 c3        1 MOL     -0.398717
    168 C53        -4.3940   -4.9670   -5.0800 c         1 MOL      0.640661
    169 O23        -4.7100   -6.1470   -4.7900 o         1 MOL     -0.633866
    170 O24        -3.6670   -4.7300   -6.0610 o         1 MOL     -0.633866
    171 H80        -5.3690   -3.6650   -1.6560 hn        1 MOL      0.306367
    172 H81        -3.5420   -2.0270   -2.8390 h1        1 MOL     -0.064030
    173 H82        -3.4690   -4.9960   -2.6230 hc        1 MOL     -0.021125
    174 H83        -2.4640   -3.9150   -3.5850 hc        1 MOL     -0.021125
    175 H84        -4.4170   -2.8070   -4.5460 hc        1 MOL      0.052351
    176 H85        -5.5320   -3.9350   -3.5940 hc        1 MOL      0.052351
    177 N15        -1.9240   -3.3350   -0.2070 n         1 MOL     -0.111434
    178 C54        -2.4140   -4.6650    0.2430 c3        1 MOL     -0.060310
    179 H86        -2.6440   -5.2800   -0.6270 h1        1 MOL      0.028430
    180 H87        -1.6440   -5.1540    0.8390 h1        1 MOL      0.028430
    181 H88        -3.3140   -4.5360    0.8460 h1        1 MOL      0.028430
    182 H89        -1.1810   -3.0030    0.3910 hn        1 MOL      0.309642
    183 Ca1        -0.2640    0.7260   -1.4090 Ca        1 MOL      1.731222
    184 O25        -2.9400    0.6580   -1.3780 oh        1 MOL     -0.823474
    185 H90        -3.5120    1.3940   -1.6100 ho        1 MOL      0.396507
    186 H91        -3.4690    0.1230   -0.7860 ho        1 MOL      0.396507
    187 O26         1.8960   -0.2600   -2.8740 oh        1 MOL     -0.823474
    188 H92         2.5940   -0.4550   -2.2510 ho        1 MOL      0.396507
    189 H93         2.2180    0.4960   -3.3610 ho        1 MOL      0.396507
    190 O27        -1.0610   -0.4920   -3.9970 oh        1 MOL     -0.823474
    191 H94        -1.1650   -1.4350   -3.9240 ho        1 MOL      0.396507
    192 H95        -1.8390   -0.1900   -4.4670 ho        1 MOL      0.396507
@<TRIPOS>BOND
     1    1    2 1   
     2    1    4 1   
     3    1    5 1   
     4    1    6 1   
     5    2    3 2   
     6    2    7 1   
     7    7    8 1   
     8    7   15 1   
     9    8    9 1   
    10    8   11 1   
    11    8   16 1   
    12    9   10 2   
    13    9   19 1   
    14   11   12 1   
    15   11   17 1   
    16   11   18 1   
    17   12   13 1   
    18   12   14 1   
    19   19   20 1   
    20   19   28 1   
    21   20   21 1   
    22   20   23 1   
    23   20   29 1   
    24   21   22 2   
    25   21   41 1   
    26   23   24 1   
    27   23   30 1   
    28   23   31 1   
    29   24   25 1   
    30   24   32 1   
    31   24   33 1   
    32   25   26 1   
    33   25   34 1   
    34   25   35 1   
    35   26   27 1   
    36   26   36 1   
    37   26   37 1   
    38   27   38 1   
    39   27   39 1   
    40   27   40 1   
    41   41   42 1   
    42   41   49 1   
    43   42   43 1   
    44   42   45 1   
    45   42   50 1   
    46   43   44 2   
    47   43   53 1   
    48   45   46 1   
    49   45   51 1   
    50   45   52 1   
    51   46   47 1   
    52   46   48 1   
    53   53   54 1   
    54   53   57 1   
    55   54   55 1   
    56   54   58 1   
    57   54   59 1   
    58   55   56 2   
    59   55   60 1   
    60   60   61 1   
    61   60   68 1   
    62   61   62 1   
    63   61   64 1   
    64   61   69 1   
    65   62   63 2   
    66   62   72 1   
    67   64   65 1   
    68   64   70 1   
    69   64   71 1   
    70   65   66 1   
    71   65   67 1   
    72   72   73 1   
    73   72   76 1   
    74   73   74 1   
    75   73   77 1   
    76   73   78 1   
    77   74   75 2   
    78   74   79 1   
    79   79   80 1   
    80   79   86 1   
    81   80   81 1   
    82   80   83 1   
    83   80   87 1   
    84   81   82 2   
    85   81   93 1   
    86   83   84 1   
    87   83   85 1   
    88   83   88 1   
    89   84   90 1   
    90   84   91 1   
    91   84   92 1   
    92   85   89 1   
    93   93   94 1   
    94   93  101 1   
    95   94   95 1   
    96   94   97 1   
    97   94  102 1   
    98   95   96 2   
    99   95  112 1   
   100   97   98 1   
   101   97   99 1   
   102   97  103 1   
   103   98  100 1   
   104   98  104 1   
   105   98  105 1   
   106   99  106 1   
   107   99  107 1   
   108   99  108 1   
   109  100  109 1   
   110  100  110 1   
   111  100  111 1   
   112  112  113 1   
   113  112  119 1   
   114  113  114 1   
   115  113  116 1   
   116  113  120 1   
   117  114  115 2   
   118  114  126 1   
   119  116  117 1   
   120  116  118 1   
   121  116  121 1   
   122  117  123 1   
   123  117  124 1   
   124  117  125 1   
   125  118  122 1   
   126  126  127 1   
   127  126  133 1   
   128  127  128 1   
   129  127  130 1   
   130  127  134 1   
   131  128  129 2   
   132  128  140 1   
   133  130  131 1   
   134  130  132 1   
   135  130  135 1   
   136  131  137 1   
   137  131  138 1   
   138  131  139 1   
   139  132  136 1   
   140  140  141 1   
   141  140  149 1   
   142  141  142 1   
   143  141  144 1   
   144  141  150 1   
   145  142  143 2   
   146  142  162 1   
   147  144  145 1   
   148  144  151 1   
   149  144  152 1   
   150  145  146 1   
   151  145  153 1   
   152  145  154 1   
   153  146  147 1   
   154  146  155 1   
   155  146  156 1   
   156  147  148 1   
   157  147  157 1   
   158  147  158 1   
   159  148  159 1   
   160  148  160 1   
   161  148  161 1   
   162  162  163 1   
   163  162  171 1   
   164  163  164 1   
   165  163  166 1   
   166  163  172 1   
   167  164  165 2   
   168  164  177 1   
   169  166  167 1   
   170  166  173 1   
   171  166  174 1   
   172  167  168 1   
   173  167  175 1   
   174  167  176 1   
   175  168  169 1   
   176  168  170 1   
   177  177  178 1   
   178  177  182 1   
   179  178  179 1   
   180  178  180 1   
   181  178  181 1   
   182  184  185 1   
   183  184  186 1   
   184  187  188 1   
   185  187  189 1   
   186  190  191 1   
   187  190  192 1   
@<TRIPOS>SUBSTRUCTURE
     1 MOL         1 TEMP              0 ****  ****    0 ROOT
