@<TRIPOS>MOLECULE
MOL
  195   189     1     0     0
SMALL
resp


@<TRIPOS>ATOM
      1 C1          4.6810    1.6180    6.1660 c3        1 MOL     -0.372024
      2 C2          4.5530    1.4440    4.6700 c         1 MOL      0.756708
      3 O1          4.3260    2.4390    3.9980 o         1 MOL     -0.594687
      4 H1          4.0400    0.8950    6.6720 hc        1 MOL      0.092724
      5 H2          5.7160    1.4550    6.4650 hc        1 MOL      0.092724
      6 H3          4.3770    2.6270    6.4430 hc        1 MOL      0.092724
      7 N1          4.4450    0.1800    4.1380 n         1 MOL     -0.678212
      8 C3          4.3910   -0.1410    2.7390 c3        1 MOL      0.315491
      9 C4          2.9820   -0.2130    2.1450 c         1 MOL      0.355693
     10 O2          2.7590   -0.4700    0.9550 o         1 MOL     -0.441073
     11 C5          5.2900   -1.3180    2.4520 c3        1 MOL     -0.277793
     12 C6          5.0980   -2.5040    3.4270 c         1 MOL      0.671930
     13 O3          5.3660   -2.3740    4.6630 o         1 MOL     -0.713556
     14 O4          4.4150   -3.5240    3.0590 o         1 MOL     -0.713556
     15 H4          4.4920   -0.5740    4.8090 hn        1 MOL      0.345829
     16 H5          4.8690    0.7060    2.2320 h1        1 MOL     -0.039478
     17 H6          6.3370   -1.0340    2.4360 hc        1 MOL      0.080068
     18 H7          5.1410   -1.6520    1.4230 hc        1 MOL      0.080068
     19 N2          1.9430    0.2250    2.9240 n         1 MOL     -0.292111
     20 C7          0.5170    0.1030    2.5550 c3        1 MOL      0.188082
     21 C8         -0.2580    1.3970    2.6150 c         1 MOL      0.473908
     22 O5          0.1630    2.2810    3.3490 o         1 MOL     -0.531139
     23 C9         -0.1060   -1.0150    3.4560 c3        1 MOL     -0.038389
     24 C10         0.2410   -2.3810    2.9930 c3        1 MOL      0.145025
     25 C11        -0.6540   -3.5020    3.5410 c3        1 MOL     -0.072562
     26 C12        -0.3690   -4.8290    2.8910 c3        1 MOL      0.091691
     27 N3         -1.4450   -5.7930    3.3250 n4        1 MOL     -0.398230
     28 H8          2.1490    0.4300    3.8970 hn        1 MOL      0.236598
     29 H9          0.4130   -0.2680    1.5420 h1        1 MOL      0.035648
     30 H10        -1.1790   -0.8470    3.4450 hc        1 MOL      0.012325
     31 H11         0.2960   -0.8670    4.4640 hc        1 MOL      0.012325
     32 H12         1.3150   -2.5160    3.1110 hc        1 MOL     -0.030355
     33 H13         0.1420   -2.4730    1.9120 hc        1 MOL     -0.030355
     34 H14        -1.6990   -3.2670    3.3340 hc        1 MOL      0.034785
     35 H15        -0.4650   -3.5380    4.6190 hc        1 MOL      0.034785
     36 H16         0.5990   -5.2540    3.1950 hx        1 MOL      0.081119
     37 H17        -0.4760   -4.9140    1.8190 hx        1 MOL      0.081119
     38 H18        -2.3740   -5.4430    3.1610 hn        1 MOL      0.323142
     39 H19        -1.4260   -6.6880    2.8620 hn        1 MOL      0.323142
     40 H20        -1.3200   -5.9510    4.3120 hn        1 MOL      0.323142
     41 N4         -1.3280    1.6420    1.8320 n         1 MOL     -0.598796
     42 C13        -1.6180    0.9920    0.5670 c3        1 MOL      0.574230
     43 C14        -1.8330   -0.5500    0.6020 c         1 MOL     -0.017897
     44 O6         -1.2060   -1.3400   -0.0470 o         1 MOL     -0.390465
     45 C15        -0.6300    1.3160   -0.6010 c3        1 MOL     -0.071127
     46 C16        -0.4290    2.7870   -0.9010 c         1 MOL      0.806224
     47 O7          0.7730    3.1730   -1.1610 o         1 MOL     -0.801332
     48 O8         -1.3080    3.6280   -0.7090 o         1 MOL     -0.801332
     49 H21        -1.8120    2.4940    2.0690 hn        1 MOL      0.337910
     50 H22        -2.6450    1.2750    0.3160 h1        1 MOL     -0.087577
     51 H23        -1.0270    0.9330   -1.5450 hc        1 MOL     -0.005548
     52 H24         0.3340    0.9200   -0.2900 hc        1 MOL     -0.005548
     53 N5         -2.8230   -1.0380    1.4250 n         1 MOL     -0.047586
     54 C17        -3.9710   -0.3300    1.9400 c3        1 MOL     -0.172956
     55 C18        -4.3620   -0.9240    3.2210 c         1 MOL      0.515946
     56 O9         -3.6290   -1.7940    3.7000 o         1 MOL     -0.586870
     57 H25        -2.9550   -2.0320    1.3080 hn        1 MOL      0.244310
     58 H26        -4.6990   -0.2420    1.1370 h1        1 MOL      0.094185
     59 H27        -3.7480    0.7030    2.2180 h1        1 MOL      0.094185
     60 N6         -5.4850   -0.5060    3.8060 n         1 MOL     -0.410071
     61 C19        -6.3180    0.6510    3.4250 c3        1 MOL      0.041067
     62 C20        -7.4760    0.2460    2.5830 c         1 MOL      0.512947
     63 O10        -7.8440   -0.8990    2.5210 o         1 MOL     -0.480969
     64 C21        -6.8050    1.4260    4.6450 c3        1 MOL     -0.207676
     65 C22        -7.6380    0.5670    5.6120 c         1 MOL      0.772401
     66 O11        -7.1350   -0.0660    6.5710 o         1 MOL     -0.679467
     67 O12        -8.8860    0.5310    5.4330 o         1 MOL     -0.679467
     68 H28        -5.7620   -0.8950    4.6990 hn        1 MOL      0.291334
     69 H29        -5.7150    1.3340    2.8280 h1        1 MOL      0.021836
     70 H30        -7.4090    2.2930    4.3720 hc        1 MOL      0.020578
     71 H31        -5.9670    1.6680    5.2990 hc        1 MOL      0.020578
     72 N7         -8.0900    1.2690    1.9520 n         1 MOL     -0.243136
     73 C23        -9.1020    1.1240    0.9390 c3        1 MOL     -0.408800
     74 C24        -8.5800    0.6370   -0.4190 c         1 MOL      0.627536
     75 O13        -9.3200   -0.0080   -1.1900 o         1 MOL     -0.540319
     76 H32        -7.6060    2.1500    2.0550 hn        1 MOL      0.255729
     77 H33        -9.4300    2.1650    0.8720 h1        1 MOL      0.186307
     78 H34        -9.9310    0.4650    1.2120 h1        1 MOL      0.186307
     79 N8         -7.2590    0.8380   -0.7770 n         1 MOL     -0.473673
     80 C25        -6.6800    0.2990   -1.9960 c3        1 MOL      0.059892
     81 C26        -5.3640   -0.4780   -1.8040 c         1 MOL      0.593516
     82 O14        -4.5210   -0.0140   -1.0810 o         1 MOL     -0.481133
     83 C27        -6.3920    1.4550   -3.0050 c3        1 MOL      0.364372
     84 C28        -7.5980    2.2480   -3.5470 c3        1 MOL     -0.343955
     85 O15        -5.7930    0.9380   -4.2360 oh        1 MOL     -0.661381
     86 H35        -6.6400    1.2020   -0.0630 hn        1 MOL      0.220362
     87 H36        -7.3080   -0.4230   -2.5030 h1        1 MOL      0.105350
     88 H37        -5.7280    2.1950   -2.5590 h1        1 MOL     -0.000656
     89 H38        -5.6040    1.6970   -4.7870 ho        1 MOL      0.413953
     90 H39        -7.1440    3.1610   -3.9410 hc        1 MOL      0.086803
     91 H40        -8.2070    1.7050   -4.2720 hc        1 MOL      0.086803
     92 H41        -8.1810    2.5710   -2.6880 hc        1 MOL      0.086803
     93 N9         -5.1170   -1.5950   -2.5370 n         1 MOL     -0.643898
     94 C29        -3.9600   -2.5230   -2.2860 c3        1 MOL     -0.043570
     95 C30        -2.6720   -2.3250   -3.1370 c         1 MOL      0.476827
     96 O16        -1.9700   -3.2310   -3.5910 o         1 MOL     -0.555449
     97 C31        -4.4230   -3.9430   -2.1630 c3        1 MOL      0.195522
     98 C32        -5.0260   -4.4010   -3.5200 c3        1 MOL      0.181751
     99 C33        -5.3920   -4.0970   -0.9600 c3        1 MOL     -0.318304
    100 C34        -5.0760   -5.8950   -3.4330 c3        1 MOL     -0.284794
    101 H42        -5.8230   -1.9720   -3.1620 hn        1 MOL      0.319798
    102 H43        -3.5150   -2.3730   -1.2970 h1        1 MOL      0.127696
    103 H44        -3.5550   -4.5650   -1.9540 hc        1 MOL     -0.006125
    104 H45        -4.4160   -4.0920   -4.3710 hc        1 MOL     -0.007782
    105 H46        -6.0260   -4.0340   -3.7390 hc        1 MOL     -0.007782
    106 H47        -6.4070   -3.7850   -1.2150 hc        1 MOL      0.080985
    107 H48        -5.4840   -5.1710   -0.7860 hc        1 MOL      0.080985
    108 H49        -5.0070   -3.6660   -0.0320 hc        1 MOL      0.080985
    109 H50        -5.3810   -6.2520   -4.4160 hc        1 MOL      0.057959
    110 H51        -4.1210   -6.3820   -3.2340 hc        1 MOL      0.057959
    111 H52        -5.8420   -6.1600   -2.7140 hc        1 MOL      0.057959
    112 N10        -2.3440   -1.1110   -3.5470 n         1 MOL     -0.251074
    113 C35        -1.1850   -0.8090   -4.4450 c3        1 MOL     -0.100353
    114 C36         0.1140   -0.6740   -3.7010 c         1 MOL      0.546150
    115 O17         0.8000    0.3270   -3.5810 o         1 MOL     -0.462822
    116 C37        -1.5190    0.4300   -5.3570 c3        1 MOL      0.183308
    117 C38        -1.9030    1.7720   -4.5410 c3        1 MOL     -0.101121
    118 O18        -2.4680    0.3080   -6.4100 oh        1 MOL     -0.584578
    119 H53        -2.9350   -0.3370   -3.2870 hn        1 MOL      0.263447
    120 H54        -1.1850   -1.6520   -5.1450 h1        1 MOL      0.114751
    121 H55        -0.5800    0.6020   -5.8780 h1        1 MOL      0.029735
    122 H56        -2.2990   -0.5170   -6.8740 ho        1 MOL      0.383287
    123 H57        -2.0050    2.6960   -5.1110 hc        1 MOL      0.031940
    124 H58        -2.8600    1.5190   -4.1030 hc        1 MOL      0.031940
    125 H59        -1.2170    1.9060   -3.7020 hc        1 MOL      0.031940
    126 N11         0.4720   -1.7810   -3.0520 n         1 MOL     -0.606164
    127 C39         1.5480   -1.9590   -1.9740 c3        1 MOL     -0.001940
    128 C40         2.9770   -1.7800   -2.5060 c         1 MOL      0.614185
    129 O19         3.3030   -1.8180   -3.6960 o         1 MOL     -0.542050
    130 C41         1.3270   -3.2700   -1.2790 c3        1 MOL      0.467530
    131 C42         1.8430   -4.4220   -2.0980 c3        1 MOL     -0.438378
    132 O20        -0.0320   -3.5650   -1.0340 oh        1 MOL     -0.599819
    133 H60        -0.0640   -2.6210   -3.1910 hn        1 MOL      0.357989
    134 H61         1.3310   -1.1560   -1.2690 h1        1 MOL      0.076303
    135 H62         1.8310   -3.3670   -0.3130 h1        1 MOL     -0.034625
    136 H63        -0.4370   -2.7470   -0.7200 ho        1 MOL      0.289683
    137 H64         1.5660   -5.3610   -1.6230 hc        1 MOL      0.109812
    138 H65         1.3980   -4.3360   -3.0900 hc        1 MOL      0.109812
    139 H66         2.9310   -4.3660   -2.0780 hc        1 MOL      0.109812
    140 N12         3.9360   -1.6470   -1.5540 n         1 MOL     -0.455169
    141 C43         5.4280   -1.7120   -1.8080 c3        1 MOL      0.019240
    142 C44         6.2900   -0.5450   -1.4770 c         1 MOL      0.523809
    143 O21         7.3740   -0.4250   -1.9370 o         1 MOL     -0.597176
    144 C45         5.9790   -2.9930   -1.1440 c3        1 MOL     -0.014863
    145 C46         7.5310   -3.1640   -1.4350 c3        1 MOL      0.099632
    146 C47         7.9810   -4.6050   -1.1320 c3        1 MOL     -0.067400
    147 C48         9.3610   -4.9530   -1.7440 c3        1 MOL     -0.036570
    148 N13         9.7660   -6.2560   -1.3050 n4        1 MOL     -0.048601
    149 H67         3.6270   -1.5610   -0.6000 hn        1 MOL      0.176787
    150 H68         5.7020   -1.9440   -2.8400 h1        1 MOL      0.096942
    151 H69         5.4380   -3.8230   -1.5970 hc        1 MOL     -0.008821
    152 H70         5.9160   -3.0000   -0.0600 hc        1 MOL     -0.008821
    153 H71         8.0840   -2.5360   -0.7410 hc        1 MOL      0.012452
    154 H72         7.7570   -2.7910   -2.4390 hc        1 MOL      0.012452
    155 H73         7.2370   -5.2050   -1.6660 hc        1 MOL      0.042469
    156 H74         7.9680   -4.7580   -0.0510 hc        1 MOL      0.042469
    157 H75        10.1020   -4.2670   -1.3390 hx        1 MOL      0.077149
    158 H76         9.3140   -4.9050   -2.8270 hx        1 MOL      0.077149
    159 H77        10.5440   -6.5660   -1.8660 hn        1 MOL      0.220472
    160 H78        10.0210   -6.4330   -0.3420 hn        1 MOL      0.220472
    161 H79         8.9670   -6.8640   -1.4590 hn        1 MOL      0.220472
    162 N14         5.7180    0.4010   -0.7400 n         1 MOL     -0.103297
    163 C49         6.3180    1.7110   -0.3940 c3        1 MOL     -0.151305
    164 C50         7.3350    1.6110    0.7350 c         1 MOL      0.362133
    165 O22         7.0590    1.3340    1.9480 o         1 MOL     -0.406895
    166 C51         5.2530    2.8310   -0.1070 c3        1 MOL      0.012633
    167 C52         5.0950    3.8580   -1.2120 c3        1 MOL     -0.184090
    168 C53         4.0450    5.0000   -1.0070 c         1 MOL      0.835891
    169 O23         3.0920    5.1330   -1.7940 o         1 MOL     -0.778750
    170 O24         4.1590    5.7390   -0.0310 o         1 MOL     -0.778750
    171 H80         4.8100    0.1680   -0.3620 hn        1 MOL      0.114837
    172 H81         6.8800    2.0720   -1.2510 h1        1 MOL      0.107297
    173 H82         5.5710    3.4050    0.7540 hc        1 MOL      0.093445
    174 H83         4.3270    2.3620    0.2230 hc        1 MOL      0.093445
    175 H84         4.8740    3.3420   -2.1450 hc        1 MOL      0.020505
    176 H85         6.0450    4.3420   -1.4220 hc        1 MOL      0.020505
    177 N15         8.6460    1.8490    0.3930 n         1 MOL     -0.318797
    178 C54         9.8340    1.6700    1.2950 c3        1 MOL     -0.009077
    179 H86         9.5120    1.2150    2.2320 h1        1 MOL      0.051805
    180 H87        10.5650    1.0230    0.8090 h1        1 MOL      0.051805
    181 H88        10.2860    2.6410    1.4990 h1        1 MOL      0.051805
    182 H89         8.8730    2.0260   -0.5710 hn        1 MOL      0.252839
    183 Ca1         0.7380    5.7260   -1.3270 Ca        1 MOL      1.832374
    184 O25         0.3570    4.6970   -3.7650 oh        1 MOL     -0.931807
    185 H90        -0.1710    4.9200   -4.5330 ho        1 MOL      0.448988
    186 H91         1.0900    4.1910   -4.1160 ho        1 MOL      0.448988
    187 O26         0.3830    5.0680    1.2380 oh        1 MOL     -0.931807
    188 H92         1.1870    4.6920    1.6010 ho        1 MOL      0.448988
    189 H93        -0.1750    5.2330    1.9940 ho        1 MOL      0.448988
    190 O27         1.3170    7.9680   -2.7750 oh        1 MOL     -0.931807
    191 H94         2.2030    8.3200   -2.8240 ho        1 MOL      0.448988
    192 H95         0.8550    8.3870   -3.5000 ho        1 MOL      0.448988
    193 O28         2.1640    7.5000    0.3140 oh        1 MOL     -0.931807
    194 H96         2.9480    6.9450    0.2820 ho        1 MOL      0.448988
    195 H97         2.3720    8.1760    0.9490 ho        1 MOL      0.448988
@<TRIPOS>BOND
     1    1    2 1   
     2    1    4 1   
     3    1    5 1   
     4    1    6 1   
     5    2    3 2   
     6    2    7 1   
     7    7    8 1   
     8    7   15 1   
     9    8    9 1   
    10    8   11 1   
    11    8   16 1   
    12    9   10 2   
    13    9   19 1   
    14   11   12 1   
    15   11   17 1   
    16   11   18 1   
    17   12   13 1   
    18   12   14 1   
    19   19   20 1   
    20   19   28 1   
    21   20   21 1   
    22   20   23 1   
    23   20   29 1   
    24   21   22 2   
    25   21   41 1   
    26   23   24 1   
    27   23   30 1   
    28   23   31 1   
    29   24   25 1   
    30   24   32 1   
    31   24   33 1   
    32   25   26 1   
    33   25   34 1   
    34   25   35 1   
    35   26   27 1   
    36   26   36 1   
    37   26   37 1   
    38   27   38 1   
    39   27   39 1   
    40   27   40 1   
    41   41   42 1   
    42   41   49 1   
    43   42   43 1   
    44   42   45 1   
    45   42   50 1   
    46   43   44 2   
    47   43   53 1   
    48   45   46 1   
    49   45   51 1   
    50   45   52 1   
    51   46   47 1   
    52   46   48 1   
    53   53   54 1   
    54   53   57 1   
    55   54   55 1   
    56   54   58 1   
    57   54   59 1   
    58   55   56 2   
    59   55   60 1   
    60   60   61 1   
    61   60   68 1   
    62   61   62 1   
    63   61   64 1   
    64   61   69 1   
    65   62   63 2   
    66   62   72 1   
    67   64   65 1   
    68   64   70 1   
    69   64   71 1   
    70   65   66 1   
    71   65   67 1   
    72   72   73 1   
    73   72   76 1   
    74   73   74 1   
    75   73   77 1   
    76   73   78 1   
    77   74   75 2   
    78   74   79 1   
    79   79   80 1   
    80   79   86 1   
    81   80   81 1   
    82   80   83 1   
    83   80   87 1   
    84   81   82 2   
    85   81   93 1   
    86   83   84 1   
    87   83   85 1   
    88   83   88 1   
    89   84   90 1   
    90   84   91 1   
    91   84   92 1   
    92   85   89 1   
    93   93   94 1   
    94   93  101 1   
    95   94   95 1   
    96   94   97 1   
    97   94  102 1   
    98   95   96 2   
    99   95  112 1   
   100   97   98 1   
   101   97   99 1   
   102   97  103 1   
   103   98  100 1   
   104   98  104 1   
   105   98  105 1   
   106   99  106 1   
   107   99  107 1   
   108   99  108 1   
   109  100  109 1   
   110  100  110 1   
   111  100  111 1   
   112  112  113 1   
   113  112  119 1   
   114  113  114 1   
   115  113  116 1   
   116  113  120 1   
   117  114  115 2   
   118  114  126 1   
   119  116  117 1   
   120  116  118 1   
   121  116  121 1   
   122  117  123 1   
   123  117  124 1   
   124  117  125 1   
   125  118  122 1   
   126  126  127 1   
   127  126  133 1   
   128  127  128 1   
   129  127  130 1   
   130  127  134 1   
   131  128  129 2   
   132  128  140 1   
   133  130  131 1   
   134  130  132 1   
   135  130  135 1   
   136  131  137 1   
   137  131  138 1   
   138  131  139 1   
   139  132  136 1   
   140  140  141 1   
   141  140  149 1   
   142  141  142 1   
   143  141  144 1   
   144  141  150 1   
   145  142  143 2   
   146  142  162 1   
   147  144  145 1   
   148  144  151 1   
   149  144  152 1   
   150  145  146 1   
   151  145  153 1   
   152  145  154 1   
   153  146  147 1   
   154  146  155 1   
   155  146  156 1   
   156  147  148 1   
   157  147  157 1   
   158  147  158 1   
   159  148  159 1   
   160  148  160 1   
   161  148  161 1   
   162  162  163 1   
   163  162  171 1   
   164  163  164 1   
   165  163  166 1   
   166  163  172 1   
   167  164  165 2   
   168  164  177 1   
   169  166  167 1   
   170  166  173 1   
   171  166  174 1   
   172  167  168 1   
   173  167  175 1   
   174  167  176 1   
   175  168  169 1   
   176  168  170 1   
   177  177  178 1   
   178  177  182 1   
   179  178  179 1   
   180  178  180 1   
   181  178  181 1   
   182  184  185 1   
   183  184  186 1   
   184  187  188 1   
   185  187  189 1   
   186  190  191 1   
   187  190  192 1   
   188  193  194 1   
   189  193  195 1   
@<TRIPOS>SUBSTRUCTURE
     1 MOL         1 TEMP              0 ****  ****    0 ROOT
