@<TRIPOS>MOLECULE
MOL
  185   180     1     0     0
SMALL
resp


@<TRIPOS>ATOM
      1 C1         -5.7780    0.7040   -3.8940 c3        1 MOL     -0.335113
      2 C2         -6.5760    1.0440   -2.5300 c         1 MOL      0.533967
      3 O1         -5.9580    1.1770   -1.4870 o         1 MOL     -0.513266
      4 H1         -5.5520    1.6300   -4.4240 hc        1 MOL      0.086085
      5 H2         -4.8470    0.1900   -3.6530 hc        1 MOL      0.086085
      6 H3         -6.3940    0.0660   -4.5270 hc        1 MOL      0.086085
      7 N1         -7.8630    1.3150   -2.6060 n         1 MOL     -0.535778
      8 C3         -8.7710    1.4510   -1.4550 c3        1 MOL      0.387962
      9 C4         -8.6470    0.5210   -0.2400 c         1 MOL      0.238219
     10 O2         -8.7550    0.9420    0.9180 o         1 MOL     -0.457561
     11 C5         -8.7900    2.9580   -1.0800 c3        1 MOL     -0.353667
     12 C6        -10.0790    3.5450   -0.6390 c         1 MOL      0.749114
     13 O3        -10.0900    4.7420   -0.2740 o         1 MOL     -0.670572
     14 O4        -11.1250    2.9340   -0.7960 o         1 MOL     -0.670572
     15 H4         -8.2870    1.1860   -3.5190 hn        1 MOL      0.305327
     16 H5         -9.7500    1.2170   -1.8790 h1        1 MOL     -0.030044
     17 H6         -8.5530    3.5150   -1.9870 hc        1 MOL      0.103290
     18 H7         -8.0470    3.0790   -0.2890 hc        1 MOL      0.103290
     19 N2         -8.3880   -0.7520   -0.4070 n         1 MOL     -0.266868
     20 C7         -8.2540   -1.7750    0.6650 c3        1 MOL      0.161549
     21 C8         -6.7740   -2.2430    0.9150 c         1 MOL      0.544701
     22 O5         -6.5460   -3.2520    1.5720 o         1 MOL     -0.564194
     23 C9         -9.2950   -2.9260    0.3220 c3        1 MOL     -0.214844
     24 C10       -10.6830   -2.3940    0.3660 c3        1 MOL      0.294074
     25 C11       -11.8290   -3.4790    0.2720 c3        1 MOL     -0.185000
     26 C12       -11.7240   -3.9620   -1.1680 c3        1 MOL      0.104367
     27 N3        -12.6410   -5.0590   -1.3850 n4        1 MOL     -0.161495
     28 H8         -8.1590   -0.9540   -1.3670 hn        1 MOL      0.158849
     29 H9         -8.5380   -1.3690    1.6280 h1        1 MOL      0.106034
     30 H10        -9.1510   -3.6660    1.1130 hc        1 MOL      0.037789
     31 H11        -9.1560   -3.2820   -0.6970 hc        1 MOL      0.037789
     32 H12       -10.8710   -1.7160   -0.4710 hc        1 MOL     -0.032202
     33 H13       -10.8550   -1.8570    1.2990 hc        1 MOL     -0.032202
     34 H14       -12.8220   -3.0510    0.3960 hc        1 MOL      0.066148
     35 H15       -11.6160   -4.2510    1.0100 hc        1 MOL      0.066148
     36 H16       -10.7350   -4.2720   -1.5100 hx        1 MOL      0.044959
     37 H17       -12.1130   -3.1610   -1.7930 hx        1 MOL      0.044959
     38 H18       -13.5400   -4.8460   -0.9460 hn        1 MOL      0.219816
     39 H19       -12.8350   -5.3060   -2.3480 hn        1 MOL      0.219816
     40 H20       -12.3980   -5.8980   -0.8750 hn        1 MOL      0.219816
     41 N4         -5.7730   -1.5700    0.3280 n         1 MOL     -0.601009
     42 C13        -4.3240   -1.8920    0.3970 c3        1 MOL      0.135771
     43 C14        -3.8640   -2.0640    1.9390 c         1 MOL      0.670648
     44 O6         -4.1500   -1.2660    2.7790 o         1 MOL     -0.534613
     45 C15        -3.4640   -0.7650   -0.2680 c3        1 MOL     -0.404072
     46 C16        -1.9340   -1.0060   -0.2060 c         1 MOL      0.842398
     47 O7         -1.1930   -0.0060   -0.3990 o         1 MOL     -0.773435
     48 O8         -1.4830   -2.1380   -0.0020 o         1 MOL     -0.773435
     49 H21        -6.0000   -0.8110   -0.3000 hn        1 MOL      0.363451
     50 H22        -4.1240   -2.8640   -0.0540 h1        1 MOL      0.036469
     51 H23        -3.6020    0.1760    0.2660 hc        1 MOL      0.136933
     52 H24        -3.7740   -0.6800   -1.3120 hc        1 MOL      0.136933
     53 N5         -3.0900   -3.0470    2.2700 n         1 MOL     -0.424200
     54 C17        -2.6260   -3.4230    3.6550 c3        1 MOL     -0.133137
     55 C18        -1.8470   -2.4320    4.4120 c         1 MOL      0.532038
     56 O9         -1.9300   -2.3310    5.6650 o         1 MOL     -0.545250
     57 H25        -2.8060   -3.6230    1.4870 hn        1 MOL      0.281480
     58 H26        -2.0590   -4.3410    3.5490 h1        1 MOL      0.113852
     59 H27        -3.4980   -3.6470    4.2690 h1        1 MOL      0.113852
     60 N6         -0.9530   -1.7080    3.7010 n         1 MOL     -0.298351
     61 C19         0.0280   -0.7640    4.2370 c3        1 MOL     -0.029010
     62 C20        -0.1740    0.7520    3.8440 c         1 MOL      0.475648
     63 O10         0.7120    1.5030    4.1300 o         1 MOL     -0.485344
     64 C21         1.3580   -1.3880    4.0310 c3        1 MOL     -0.097025
     65 C22         1.8560   -1.5790    2.6340 c         1 MOL      0.697767
     66 N7          3.0230   -2.1160    2.4240 n         1 MOL     -0.669182
     67 O11         1.2500   -1.1290    1.7070 o         1 MOL     -0.721669
     68 H28        -0.8810   -1.8870    2.7080 hn        1 MOL      0.211532
     69 H29        -0.0420   -0.7910    5.3260 h1        1 MOL      0.112894
     70 H30         1.2900   -2.3820    4.4770 hc        1 MOL      0.044464
     71 H31         2.1570   -0.7920    4.4700 hc        1 MOL      0.044464
     72 H32         3.4920   -2.3550    3.2820 hn        1 MOL      0.288093
     73 H33         3.2510   -2.4530    1.4960 hn        1 MOL      0.288093
     74 N8         -1.3420    1.1210    3.1500 n         1 MOL     -0.212432
     75 C23        -1.6750    2.5140    2.9340 c3        1 MOL     -0.251601
     76 C24        -0.7380    3.3230    1.9500 c         1 MOL      0.512090
     77 O12        -0.5090    4.5550    2.1760 o         1 MOL     -0.509312
     78 H34        -1.9530    0.3570    2.9250 hn        1 MOL      0.179871
     79 H35        -1.5800    3.0000    3.9160 h1        1 MOL      0.133775
     80 H36        -2.7110    2.5650    2.5910 h1        1 MOL      0.133775
     81 N9         -0.1810    2.5850    0.9610 n         1 MOL     -0.307535
     82 C25         0.7130    3.1250   -0.1120 c3        1 MOL      0.225672
     83 C26         1.7760    2.1340   -0.6100 c         1 MOL      0.034546
     84 O13         1.7130    0.9280   -0.3970 o         1 MOL     -0.168114
     85 C27        -0.0480    3.4900   -1.3790 c3        1 MOL      0.167259
     86 C28        -1.1710    4.4360   -1.2690 ca        1 MOL     -0.094327
     87 C29        -0.9320    5.7770   -0.9880 ca        1 MOL     -0.112770
     88 C30        -2.4670    3.8810   -1.4520 ca        1 MOL     -0.112770
     89 C31        -2.0240    6.6130   -0.7820 ca        1 MOL     -0.257981
     90 C32        -3.5580    4.7420   -1.2590 ca        1 MOL     -0.257981
     91 C33        -3.3480    6.1160   -0.9190 ca        1 MOL      0.349161
     92 O14        -4.4530    6.9860   -0.9360 oh        1 MOL     -0.515041
     93 H37        -0.2620    1.5780    0.8850 hn        1 MOL      0.190272
     94 H38         1.2170    4.0380    0.2190 h1        1 MOL     -0.007530
     95 H39        -0.5510    2.6240   -1.8000 hc        1 MOL     -0.047164
     96 H40         0.6300    3.9740   -2.0950 hc        1 MOL     -0.047164
     97 H41         0.0810    6.1450   -1.0030 ha        1 MOL      0.119753
     98 H42        -2.6700    2.8230   -1.5890 ha        1 MOL      0.119753
     99 H43        -1.9250    7.6800   -0.6230 ha        1 MOL      0.162998
    100 H44        -4.4900    4.2060   -1.2220 ha        1 MOL      0.162998
    101 H45        -5.2580    6.4870   -1.1030 ho        1 MOL      0.379567
    102 N10         2.8180    2.7270   -1.2690 n         1 MOL     -0.105852
    103 C34         4.1680    2.1610   -1.4870 c3        1 MOL     -0.479396
    104 C35         5.0760    2.1250   -0.3120 c         1 MOL      0.637173
    105 O15         5.5830    1.0290   -0.0060 o         1 MOL     -0.392826
    106 C36         4.8500    2.6940   -2.7880 c3        1 MOL      0.130195
    107 C37         3.7770    2.7980   -3.9410 c3        1 MOL      0.010592
    108 C38         6.1130    1.8820   -3.1440 c3        1 MOL     -0.342709
    109 C39         3.2590    1.4320   -4.4750 c3        1 MOL     -0.287944
    110 H46         2.6280    3.6880   -1.5150 hn        1 MOL      0.220740
    111 H47         3.9070    1.1280   -1.7190 h1        1 MOL      0.205815
    112 H48         5.1570    3.7340   -2.6740 hc        1 MOL      0.005289
    113 H49         4.1530    3.3130   -4.8220 hc        1 MOL      0.021913
    114 H50         2.8620    3.2590   -3.5650 hc        1 MOL      0.021913
    115 H51         6.5980    2.2140   -4.0560 hc        1 MOL      0.107341
    116 H52         6.8920    2.1530   -2.4280 hc        1 MOL      0.107341
    117 H53         5.9410    0.8150   -3.2810 hc        1 MOL      0.107341
    118 H54         2.6390    0.9240   -3.7380 hc        1 MOL      0.080515
    119 H55         2.6120    1.7320   -5.2950 hc        1 MOL      0.080515
    120 H56         4.1680    0.9220   -4.7930 hc        1 MOL      0.080515
    121 N11         5.3010    3.2670    0.4230 n         1 MOL     -0.298858
    122 C40         5.9320    3.2450    1.7790 c3        1 MOL     -0.289392
    123 C41         7.1890    2.4350    1.9380 c         1 MOL      0.530774
    124 O16         7.3320    1.6750    2.9030 o         1 MOL     -0.489587
    125 C42         6.3130    4.6240    2.2050 c3        1 MOL      0.078394
    126 O17         6.9160    5.3980    1.1680 oh        1 MOL     -0.648021
    127 H57         4.8310    4.1290    0.1760 hn        1 MOL      0.297797
    128 H58         5.1310    2.7960    2.3530 h1        1 MOL      0.190090
    129 H59         6.8880    4.7930    3.1170 h1        1 MOL      0.089995
    130 H60         5.4600    5.2020    2.5510 h1        1 MOL      0.089995
    131 H61         6.9590    6.3150    1.4650 ho        1 MOL      0.438493
    132 N12         8.0930    2.4270    0.9520 n         1 MOL     -0.363254
    133 C43         9.2200    1.6340    0.7850 c3        1 MOL      0.376233
    134 C44         8.9990    0.1000    0.9420 c         1 MOL      0.335824
    135 O18         9.8760   -0.5730    1.4440 o         1 MOL     -0.509050
    136 C45        10.4220    2.1450    1.5530 c3        1 MOL     -0.265184
    137 H62         8.0910    3.1430    0.2340 hn        1 MOL      0.275283
    138 H63         9.4060    1.7770   -0.2850 h1        1 MOL     -0.013906
    139 H64        10.4640    3.2160    1.3700 hc        1 MOL      0.066632
    140 H65        10.3760    1.9980    2.6290 hc        1 MOL      0.066632
    141 H66        11.3190    1.7560    1.0710 hc        1 MOL      0.066632
    142 N13         7.7700   -0.4060    0.8570 n         1 MOL     -0.401437
    143 C46         7.4090   -1.8880    0.9170 c3        1 MOL      0.778119
    144 C47         6.7500   -2.5500   -0.3560 c         1 MOL      0.073823
    145 O19         6.3670   -1.7600   -1.2570 o         1 MOL     -0.504375
    146 C48         6.5210   -1.9820    2.1060 c3        1 MOL     -0.341270
    147 H67         7.0030    0.2450    0.8350 hn        1 MOL      0.005379
    148 H68         8.2950   -2.4670    1.1750 h1        1 MOL     -0.093466
    149 H69         5.9090   -1.0840    2.0940 hc        1 MOL      0.090702
    150 H70         5.9090   -2.8850    2.0700 hc        1 MOL      0.090702
    151 H71         7.1680   -2.1200    2.9750 hc        1 MOL      0.090702
    152 N14         6.5720   -3.8700   -0.4870 n         1 MOL     -0.296243
    153 C49         6.0960   -4.6010   -1.6010 c3        1 MOL     -0.116836
    154 C50         6.7480   -4.2170   -3.0360 c         1 MOL      0.465930
    155 O20         6.1880   -4.5470   -4.0370 o         1 MOL     -0.488307
    156 C51         4.5800   -4.5140   -1.6670 c3        1 MOL      0.108657
    157 C52         3.9130   -5.1770   -0.3830 c3        1 MOL     -0.040976
    158 C53         2.3970   -4.8260   -0.4200 c         1 MOL      0.563874
    159 O21         1.6480   -5.5920   -0.9780 o         1 MOL     -0.632453
    160 O22         1.9800   -3.7760    0.1450 o         1 MOL     -0.632453
    161 H72         6.8820   -4.3950    0.3170 hn        1 MOL      0.255812
    162 H73         6.3210   -5.6440   -1.3870 h1        1 MOL      0.074900
    163 H74         4.2470   -4.9170   -2.6210 hc        1 MOL      0.010146
    164 H75         4.3840   -3.4400   -1.7310 hc        1 MOL      0.010146
    165 H76         4.4050   -4.7980    0.5100 hc        1 MOL     -0.001731
    166 H77         3.9650   -6.2700   -0.4580 hc        1 MOL     -0.001731
    167 N15         7.9230   -3.6090   -3.0210 n         1 MOL     -0.160439
    168 C54         8.8220   -3.3300   -4.1620 c3        1 MOL     -0.234239
    169 H78         8.3930   -2.5380   -4.7760 h1        1 MOL      0.106389
    170 H79         9.7960   -3.0140   -3.7890 h1        1 MOL      0.106389
    171 H80         8.9380   -4.2320   -4.7630 h1        1 MOL      0.106389
    172 H81         8.3160   -3.5180   -2.0920 hn        1 MOL      0.196469
    173 Ca1         1.0650   -1.5620   -0.7650 Ca        1 MOL      1.699956
    174 O23         0.0310   -0.2410   -2.7310 oh        1 MOL     -0.872456
    175 H82        -0.3360   -0.0160   -3.5920 ho        1 MOL      0.422203
    176 H83        -0.6400    0.0230   -2.1010 ho        1 MOL      0.422203
    177 O24         2.9810   -1.5020   -3.0380 oh        1 MOL     -0.872456
    178 H84         3.7930   -1.6540   -3.5210 ho        1 MOL      0.422203
    179 H85         2.3560   -1.2030   -3.7080 ho        1 MOL      0.422203
    180 O25         3.7520   -1.1630   -0.2380 oh        1 MOL     -0.872456
    181 H86         4.3150   -1.4470   -0.9610 ho        1 MOL      0.422203
    182 H87         4.2880   -0.5630    0.2740 ho        1 MOL      0.422203
    183 O26         0.1440   -3.2640   -2.7360 oh        1 MOL     -0.872456
    184 H88         0.5640   -4.1170   -2.8080 ho        1 MOL      0.422203
    185 H89        -0.2310   -3.1000   -3.6060 ho        1 MOL      0.422203
@<TRIPOS>BOND
     1    1    2 1   
     2    1    4 1   
     3    1    5 1   
     4    1    6 1   
     5    2    3 2   
     6    2    7 1   
     7    7    8 1   
     8    7   15 1   
     9    8    9 1   
    10    8   11 1   
    11    8   16 1   
    12    9   10 2   
    13    9   19 1   
    14   11   12 1   
    15   11   17 1   
    16   11   18 1   
    17   12   13 1   
    18   12   14 1   
    19   19   20 1   
    20   19   28 1   
    21   20   21 1   
    22   20   23 1   
    23   20   29 1   
    24   21   22 2   
    25   21   41 1   
    26   23   24 1   
    27   23   30 1   
    28   23   31 1   
    29   24   25 1   
    30   24   32 1   
    31   24   33 1   
    32   25   26 1   
    33   25   34 1   
    34   25   35 1   
    35   26   27 1   
    36   26   36 1   
    37   26   37 1   
    38   27   38 1   
    39   27   39 1   
    40   27   40 1   
    41   41   42 1   
    42   41   49 1   
    43   42   43 1   
    44   42   45 1   
    45   42   50 1   
    46   43   44 2   
    47   43   53 1   
    48   45   46 1   
    49   45   51 1   
    50   45   52 1   
    51   46   47 1   
    52   46   48 1   
    53   53   54 1   
    54   53   57 1   
    55   54   55 1   
    56   54   58 1   
    57   54   59 1   
    58   55   56 2   
    59   55   60 1   
    60   60   61 1   
    61   60   68 1   
    62   61   62 1   
    63   61   64 1   
    64   61   69 1   
    65   62   63 2   
    66   62   74 1   
    67   64   65 1   
    68   64   70 1   
    69   64   71 1   
    70   65   66 1   
    71   65   67 2   
    72   66   72 1   
    73   66   73 1   
    74   74   75 1   
    75   74   78 1   
    76   75   76 1   
    77   75   79 1   
    78   75   80 1   
    79   76   77 2   
    80   76   81 1   
    81   81   82 1   
    82   81   93 1   
    83   82   83 1   
    84   82   85 1   
    85   82   94 1   
    86   83   84 2   
    87   83  102 1   
    88   85   86 1   
    89   85   95 1   
    90   85   96 1   
    91   86   87 ar  
    92   86   88 ar  
    93   87   89 ar  
    94   87   97 1   
    95   88   90 ar  
    96   88   98 1   
    97   89   91 ar  
    98   89   99 1   
    99   90   91 ar  
   100   90  100 1   
   101   91   92 1   
   102   92  101 1   
   103  102  103 1   
   104  102  110 1   
   105  103  104 1   
   106  103  106 1   
   107  103  111 1   
   108  104  105 2   
   109  104  121 1   
   110  106  107 1   
   111  106  108 1   
   112  106  112 1   
   113  107  109 1   
   114  107  113 1   
   115  107  114 1   
   116  108  115 1   
   117  108  116 1   
   118  108  117 1   
   119  109  118 1   
   120  109  119 1   
   121  109  120 1   
   122  121  122 1   
   123  121  127 1   
   124  122  123 1   
   125  122  125 1   
   126  122  128 1   
   127  123  124 2   
   128  123  132 1   
   129  125  126 1   
   130  125  129 1   
   131  125  130 1   
   132  126  131 1   
   133  132  133 1   
   134  132  137 1   
   135  133  134 1   
   136  133  136 1   
   137  133  138 1   
   138  134  135 2   
   139  134  142 1   
   140  136  139 1   
   141  136  140 1   
   142  136  141 1   
   143  142  143 1   
   144  142  147 1   
   145  143  144 1   
   146  143  146 1   
   147  143  148 1   
   148  144  145 2   
   149  144  152 1   
   150  146  149 1   
   151  146  150 1   
   152  146  151 1   
   153  152  153 1   
   154  152  161 1   
   155  153  154 1   
   156  153  156 1   
   157  153  162 1   
   158  154  155 2   
   159  154  167 1   
   160  156  157 1   
   161  156  163 1   
   162  156  164 1   
   163  157  158 1   
   164  157  165 1   
   165  157  166 1   
   166  158  159 1   
   167  158  160 1   
   168  167  168 1   
   169  167  172 1   
   170  168  169 1   
   171  168  170 1   
   172  168  171 1   
   173  174  175 1   
   174  174  176 1   
   175  177  178 1   
   176  177  179 1   
   177  180  181 1   
   178  180  182 1   
   179  183  184 1   
   180  183  185 1   
@<TRIPOS>SUBSTRUCTURE
     1 MOL         1 TEMP              0 ****  ****    0 ROOT
