@<TRIPOS>MOLECULE
MOL
  181   177     1     0     0
SMALL
resp


@<TRIPOS>ATOM
      1 C1          2.5430   -3.3960    4.2250 c3        1 MOL     -0.375611
      2 C2          3.9880   -3.1960    4.1030 c         1 MOL      0.702319
      3 O1          4.5750   -2.1550    4.3600 o         1 MOL     -0.624109
      4 H1          2.0230   -2.5010    3.8840 hc        1 MOL      0.100244
      5 H2          2.2400   -4.2460    3.6150 hc        1 MOL      0.100244
      6 H3          2.2890   -3.5890    5.2680 hc        1 MOL      0.100244
      7 N1          4.7430   -4.2010    3.7430 n         1 MOL     -0.620247
      8 C3          6.1420   -4.0430    3.2490 c3        1 MOL      0.407681
      9 C4          6.1470   -3.5260    1.7740 c         1 MOL      0.510621
     10 O2          5.1000   -3.4210    1.1790 o         1 MOL     -0.477912
     11 C5          6.9560   -5.3340    3.3880 c3        1 MOL     -0.453857
     12 C6          6.7360   -6.4950    2.3810 c         1 MOL      0.806912
     13 O3          7.4170   -7.5020    2.4990 o         1 MOL     -0.737325
     14 O4          5.8770   -6.4150    1.5050 o         1 MOL     -0.737325
     15 H4          4.3170   -5.1070    3.6040 hn        1 MOL      0.309261
     16 H5          6.7240   -3.3370    3.8470 h1        1 MOL     -0.006750
     17 H6          6.6730   -5.6540    4.3940 hc        1 MOL      0.066629
     18 H7          8.0000   -5.0500    3.4720 hc        1 MOL      0.066629
     19 N2          7.3370   -3.3920    1.0830 n         1 MOL     -0.693433
     20 C7          7.2720   -3.1050   -0.3580 c3        1 MOL      0.293442
     21 C8          6.6610   -1.6520   -0.6680 c         1 MOL      0.546329
     22 O5          6.9590   -0.6150   -0.0000 o         1 MOL     -0.543215
     23 C9          8.6780   -3.2570   -0.8960 c3        1 MOL     -0.388294
     24 H8          8.1790   -3.7360    1.5180 hn        1 MOL      0.357674
     25 H9          6.7560   -3.9540   -0.8080 h1        1 MOL      0.076314
     26 H10         9.3670   -2.6230   -0.3440 hc        1 MOL      0.095905
     27 H11         9.0900   -4.2470   -0.7640 hc        1 MOL      0.095905
     28 H12         8.6540   -3.2030   -1.9880 hc        1 MOL      0.095905
     29 N3          5.8670   -1.5550   -1.7420 n         1 MOL     -0.469676
     30 C10         5.1780   -0.2440   -1.9740 c3        1 MOL      0.017565
     31 C11         6.1000    0.8470   -2.4740 c         1 MOL      0.516841
     32 O6          7.0390    0.4860   -3.2390 o         1 MOL     -0.524502
     33 C12         3.9970   -0.5730   -2.9530 c3        1 MOL     -0.234145
     34 C13         3.0180   -1.7070   -2.4960 c         1 MOL      0.719396
     35 O7          2.3780   -1.5290   -1.4060 o         1 MOL     -0.687975
     36 O8          2.8820   -2.7100   -3.1410 o         1 MOL     -0.687975
     37 H13         5.6730   -2.3120   -2.3820 hn        1 MOL      0.286652
     38 H14         4.7210    0.0170   -1.0140 h1        1 MOL      0.119828
     39 H15         4.4230   -0.9500   -3.8900 hc        1 MOL      0.030590
     40 H16         3.4490    0.3340   -3.1760 hc        1 MOL      0.030590
     41 N4          5.8210    2.1230   -2.1040 n         1 MOL     -0.296463
     42 C14         6.5540    3.2490   -2.6280 c3        1 MOL     -0.081726
     43 C15         5.8880    4.5800   -2.3590 c         1 MOL      0.672154
     44 O9          6.3840    5.3990   -1.6160 o         1 MOL     -0.587451
     45 H17         5.0920    2.2930   -1.4280 hn        1 MOL      0.243964
     46 H18         6.7300    3.1730   -3.7090 h1        1 MOL      0.048377
     47 H19         7.5410    3.2350   -2.1460 h1        1 MOL      0.048377
     48 N5          4.7550    4.7720   -2.9740 n         1 MOL     -0.454360
     49 C16         3.9910    5.9460   -2.7030 c3        1 MOL     -0.109755
     50 C17         3.3750    5.8290   -1.3260 c         1 MOL      0.702816
     51 O10         3.0090    4.6980   -0.9750 o         1 MOL     -0.528454
     52 C18         2.8610    6.0090   -3.7460 c3        1 MOL     -0.228510
     53 C19         3.3910    6.2400   -5.1110 c         1 MOL      0.769608
     54 N6          3.3950    5.1580   -5.9290 n         1 MOL     -0.901449
     55 O11         3.6780    7.3570   -5.3450 o         1 MOL     -0.558652
     56 H20         4.4240    3.9680   -3.4910 hn        1 MOL      0.260001
     57 H21         4.6240    6.8280   -2.8080 h1        1 MOL      0.104613
     58 H22         2.2110    6.8420   -3.4930 hc        1 MOL      0.081431
     59 H23         2.2410    5.1320   -3.5920 hc        1 MOL      0.081431
     60 H24         3.1830    4.2320   -5.5660 hn        1 MOL      0.390595
     61 H25         3.8340    5.1980   -6.8400 hn        1 MOL      0.390595
     62 N7          3.2500    6.8770   -0.5760 n         1 MOL     -0.485565
     63 C20         2.6400    6.8830    0.8300 c3        1 MOL     -0.066545
     64 C21         1.1250    7.0530    0.9480 c         1 MOL      0.566202
     65 O12         0.4380    7.6750    0.1220 o         1 MOL     -0.519716
     66 H26         3.5960    7.7510   -0.9570 hn        1 MOL      0.298516
     67 H27         3.1200    7.6310    1.4620 h1        1 MOL      0.087397
     68 H28         2.8750    5.9140    1.2790 h1        1 MOL      0.087397
     69 N8          0.5980    6.5580    2.0430 n         1 MOL     -0.409070
     70 C22        -0.8170    6.9140    2.5390 c3        1 MOL     -0.243704
     71 C23        -1.7360    5.7370    2.8390 c         1 MOL      0.664975
     72 O13        -2.9150    5.9020    3.0760 o         1 MOL     -0.608230
     73 C24        -0.7480    7.9500    3.7220 c3        1 MOL      0.296124
     74 C25        -0.3770    7.3970    5.1150 c3        1 MOL     -0.254345
     75 O14         0.0300    9.0940    3.4830 oh        1 MOL     -0.550052
     76 H29         1.2000    6.2060    2.7780 hn        1 MOL      0.272362
     77 H30        -1.3780    7.3250    1.7050 h1        1 MOL      0.168835
     78 H31        -1.7400    8.3970    3.7880 h1        1 MOL      0.068919
     79 H32         0.9250    8.7600    3.3710 ho        1 MOL      0.344028
     80 H33        -1.0180    6.5580    5.3900 hc        1 MOL      0.066969
     81 H34         0.6490    7.0370    5.0480 hc        1 MOL      0.066969
     82 H35        -0.3260    8.1580    5.8960 hc        1 MOL      0.066969
     83 N9         -1.1710    4.5530    2.9120 n         1 MOL     -0.368165
     84 C26        -1.7960    3.2650    3.1230 c3        1 MOL      0.038754
     85 C27        -1.4730    2.2450    1.9580 c         1 MOL      0.513119
     86 O15        -0.3910    2.3570    1.3530 o         1 MOL     -0.509353
     87 C28        -1.4210    2.8050    4.6090 c3        1 MOL      0.359768
     88 C29        -2.4070    3.2620    5.6650 c3        1 MOL     -0.179431
     89 C30        -1.1610    1.2900    4.6260 c3        1 MOL     -0.398273
     90 C31        -1.7160    3.3140    7.0270 c3        1 MOL      0.040543
     91 H36        -0.1820    4.5360    2.7070 hn        1 MOL      0.201822
     92 H37        -2.8690    3.4240    3.1960 h1        1 MOL      0.015574
     93 H38        -0.4790    3.2980    4.8380 hc        1 MOL     -0.053931
     94 H39        -3.1970    2.5170    5.5960 hc        1 MOL      0.030768
     95 H40        -2.7350    4.2760    5.4750 hc        1 MOL      0.030768
     96 H41        -0.9910    1.1140    5.6840 hc        1 MOL      0.109434
     97 H42        -1.9900    0.6970    4.2530 hc        1 MOL      0.109434
     98 H43        -0.1890    1.1740    4.1450 hc        1 MOL      0.109434
     99 H44        -1.2560    2.3760    7.3260 hc        1 MOL     -0.011370
    100 H45        -0.9450    4.0830    6.9240 hc        1 MOL     -0.011370
    101 H46        -2.3750    3.5860    7.8510 hc        1 MOL     -0.011370
    102 N10        -2.3460    1.3020    1.6780 n         1 MOL     -0.698543
    103 C32        -2.1860    0.3290    0.5790 c3        1 MOL      0.411967
    104 C33        -3.4580    0.1070   -0.2370 c         1 MOL      0.398977
    105 O16        -3.4700   -0.7220   -1.1250 o         1 MOL     -0.473871
    106 C34        -1.6560   -0.9610    1.1650 c3        1 MOL      0.099068
    107 C35        -0.8710   -1.8720    0.2850 c         1 MOL      0.783720
    108 O17        -0.4700   -1.3740   -0.7630 o         1 MOL     -0.805540
    109 O18        -0.4560   -2.9490    0.7160 o         1 MOL     -0.805540
    110 H47        -3.2050    1.3130    2.2130 hn        1 MOL      0.329769
    111 H48        -1.4450    0.6680   -0.1570 h1        1 MOL      0.057016
    112 H49        -2.6200   -1.3630    1.4750 hc        1 MOL     -0.056736
    113 H50        -1.0770   -0.7160    2.0540 hc        1 MOL     -0.056736
    114 N11        -4.5290    0.8840    0.0500 n         1 MOL     -0.638695
    115 C36        -5.7330    0.7340   -0.7750 c3        1 MOL      0.580473
    116 C37        -6.4560   -0.5950   -0.4290 c         1 MOL      0.225134
    117 O19        -6.6810   -0.7780    0.7460 o         1 MOL     -0.473047
    118 C38        -6.6260    1.9760   -0.6220 c3        1 MOL     -0.297733
    119 C39        -7.7340    2.1030   -1.6440 ca        1 MOL      0.116295
    120 C40        -7.4890    2.8270   -2.7650 ca        1 MOL     -0.147504
    121 C41        -8.9250    1.3590   -1.5070 ca        1 MOL     -0.147504
    122 C42        -8.4550    2.9320   -3.7700 ca        1 MOL     -0.143358
    123 C43        -9.9010    1.4310   -2.5390 ca        1 MOL     -0.143358
    124 C44        -9.6470    2.1900   -3.6880 ca        1 MOL     -0.081248
    125 H51        -4.6030    1.4350    0.8920 hn        1 MOL      0.292441
    126 H52        -5.3830    0.7490   -1.8080 h1        1 MOL     -0.039386
    127 H53        -5.8430    2.7260   -0.7630 hc        1 MOL      0.081201
    128 H54        -6.9210    2.0320    0.4310 hc        1 MOL      0.081201
    129 H55        -6.5000    3.2640   -2.7560 ha        1 MOL      0.115771
    130 H56        -8.9940    0.7530   -0.6150 ha        1 MOL      0.115771
    131 H57        -8.2630    3.5760   -4.6040 ha        1 MOL      0.116559
    132 H58       -10.7500    0.7640   -2.6260 ha        1 MOL      0.116559
    133 H59       -10.4390    2.2460   -4.4240 ha        1 MOL      0.097610
    134 N12        -6.7880   -1.4780   -1.4430 n         1 MOL     -0.140457
    135 C45        -7.6260   -2.6680   -1.2370 c3        1 MOL      0.294963
    136 C46        -6.9470   -3.6100   -0.2190 c         1 MOL      0.164001
    137 O20        -7.5790   -4.3960    0.5330 o         1 MOL     -0.512249
    138 C47        -7.8820   -3.2670   -2.5170 c3        1 MOL      0.026700
    139 C48        -7.6580   -2.1890   -3.5230 c3        1 MOL     -0.083660
    140 C49        -6.6300   -1.2280   -2.8300 c3        1 MOL     -0.068413
    141 H60        -8.6080   -2.4190   -0.8380 h1        1 MOL     -0.010195
    142 H61        -7.0920   -3.9870   -2.7430 hc        1 MOL      0.017718
    143 H62        -8.8570   -3.7390   -2.5800 hc        1 MOL      0.017718
    144 H63        -7.2560   -2.6050   -4.4490 hc        1 MOL      0.024806
    145 H64        -8.5420   -1.6050   -3.7630 hc        1 MOL      0.024806
    146 H65        -5.6300   -1.5080   -3.1590 h1        1 MOL      0.062918
    147 H66        -6.7790   -0.1940   -3.1320 h1        1 MOL      0.062918
    148 N13        -5.5630   -3.6690   -0.2720 n         1 MOL     -0.192660
    149 C50        -4.8210   -4.5860    0.6840 c3        1 MOL      0.031919
    150 C51        -4.8180   -4.1940    2.1580 c         1 MOL      0.376792
    151 O21        -4.2190   -4.8970    2.9410 o         1 MOL     -0.497270
    152 C52        -3.4250   -4.8210    0.0880 c3        1 MOL      0.030755
    153 C53        -3.4230   -5.4670   -1.2880 c3        1 MOL     -0.331488
    154 C54        -1.9990   -5.6460   -1.8650 c         1 MOL      0.795976
    155 O22        -1.6250   -6.8090   -2.0770 o         1 MOL     -0.709087
    156 O23        -1.4130   -4.6310   -2.1280 o         1 MOL     -0.709087
    157 H67        -5.1050   -3.0300   -0.9070 hn        1 MOL      0.221716
    158 H68        -5.2220   -5.5920    0.6660 h1        1 MOL      0.102406
    159 H69        -2.9040   -5.4460    0.8150 hc        1 MOL      0.006643
    160 H70        -3.0130   -3.8150   -0.0030 hc        1 MOL      0.006643
    161 H71        -4.0190   -4.9690   -2.0400 hc        1 MOL      0.050721
    162 H72        -3.9380   -6.4270   -1.2720 hc        1 MOL      0.050721
    163 N14        -5.5230   -3.0640    2.5810 n         1 MOL     -0.134511
    164 C55        -5.6020   -2.6830    3.9300 c3        1 MOL     -0.211021
    165 H73        -6.5520   -2.1790    4.1100 h1        1 MOL      0.076999
    166 H74        -5.5350   -3.5670    4.5630 h1        1 MOL      0.076999
    167 H75        -4.7820   -2.0040    4.1650 h1        1 MOL      0.076999
    168 H76        -5.8480   -2.5470    1.7730 hn        1 MOL      0.204767
    169 Ca1         0.8370   -3.5590   -1.5730 Ca        1 MOL      1.749713
    170 O24         2.8060   -4.4400    0.2910 oh        1 MOL     -0.831152
    171 H77         2.4470   -5.0070    0.9790 ho        1 MOL      0.398069
    172 H78         3.5830   -4.0550    0.6890 ho        1 MOL      0.398069
    173 O25         1.9850   -5.4030   -3.3840 oh        1 MOL     -0.831152
    174 H79         2.7410   -5.1230   -3.9070 ho        1 MOL      0.398069
    175 H80         2.1580   -6.3190   -3.1720 ho        1 MOL      0.398069
    176 O26         0.2280   -2.5340   -4.0460 oh        1 MOL     -0.831152
    177 H81        -0.4820   -2.3290   -4.6570 ho        1 MOL      0.398069
    178 H82         1.0100   -2.1990   -4.4630 ho        1 MOL      0.398069
    179 O27         0.5850   -6.0830   -0.5960 oh        1 MOL     -0.831152
    180 H83        -0.2850   -6.3930   -0.8450 ho        1 MOL      0.398069
    181 H84         0.8060   -6.6010    0.1850 ho        1 MOL      0.398069
@<TRIPOS>BOND
     1    1    2 1   
     2    1    4 1   
     3    1    5 1   
     4    1    6 1   
     5    2    3 2   
     6    2    7 1   
     7    7    8 1   
     8    7   15 1   
     9    8    9 1   
    10    8   11 1   
    11    8   16 1   
    12    9   10 2   
    13    9   19 1   
    14   11   12 1   
    15   11   17 1   
    16   11   18 1   
    17   12   13 1   
    18   12   14 1   
    19   19   20 1   
    20   19   24 1   
    21   20   21 1   
    22   20   23 1   
    23   20   25 1   
    24   21   22 2   
    25   21   29 1   
    26   23   26 1   
    27   23   27 1   
    28   23   28 1   
    29   29   30 1   
    30   29   37 1   
    31   30   31 1   
    32   30   33 1   
    33   30   38 1   
    34   31   32 2   
    35   31   41 1   
    36   33   34 1   
    37   33   39 1   
    38   33   40 1   
    39   34   35 1   
    40   34   36 1   
    41   41   42 1   
    42   41   45 1   
    43   42   43 1   
    44   42   46 1   
    45   42   47 1   
    46   43   44 2   
    47   43   48 1   
    48   48   49 1   
    49   48   56 1   
    50   49   50 1   
    51   49   52 1   
    52   49   57 1   
    53   50   51 2   
    54   50   62 1   
    55   52   53 1   
    56   52   58 1   
    57   52   59 1   
    58   53   54 1   
    59   53   55 2   
    60   54   60 1   
    61   54   61 1   
    62   62   63 1   
    63   62   66 1   
    64   63   64 1   
    65   63   67 1   
    66   63   68 1   
    67   64   65 2   
    68   64   69 1   
    69   69   70 1   
    70   69   76 1   
    71   70   71 1   
    72   70   73 1   
    73   70   77 1   
    74   71   72 2   
    75   71   83 1   
    76   73   74 1   
    77   73   75 1   
    78   73   78 1   
    79   74   80 1   
    80   74   81 1   
    81   74   82 1   
    82   75   79 1   
    83   83   84 1   
    84   83   91 1   
    85   84   85 1   
    86   84   87 1   
    87   84   92 1   
    88   85   86 2   
    89   85  102 1   
    90   87   88 1   
    91   87   89 1   
    92   87   93 1   
    93   88   90 1   
    94   88   94 1   
    95   88   95 1   
    96   89   96 1   
    97   89   97 1   
    98   89   98 1   
    99   90   99 1   
   100   90  100 1   
   101   90  101 1   
   102  102  103 1   
   103  102  110 1   
   104  103  104 1   
   105  103  106 1   
   106  103  111 1   
   107  104  105 2   
   108  104  114 1   
   109  106  107 1   
   110  106  112 1   
   111  106  113 1   
   112  107  108 1   
   113  107  109 1   
   114  114  115 1   
   115  114  125 1   
   116  115  116 1   
   117  115  118 1   
   118  115  126 1   
   119  116  117 2   
   120  116  134 1   
   121  118  119 1   
   122  118  127 1   
   123  118  128 1   
   124  119  120 ar  
   125  119  121 ar  
   126  120  122 ar  
   127  120  129 1   
   128  121  123 ar  
   129  121  130 1   
   130  122  124 ar  
   131  122  131 1   
   132  123  124 ar  
   133  123  132 1   
   134  124  133 1   
   135  134  135 1   
   136  134  140 1   
   137  135  136 1   
   138  135  138 1   
   139  135  141 1   
   140  136  137 2   
   141  136  148 1   
   142  138  139 1   
   143  138  142 1   
   144  138  143 1   
   145  139  140 1   
   146  139  144 1   
   147  139  145 1   
   148  140  146 1   
   149  140  147 1   
   150  148  149 1   
   151  148  157 1   
   152  149  150 1   
   153  149  152 1   
   154  149  158 1   
   155  150  151 2   
   156  150  163 1   
   157  152  153 1   
   158  152  159 1   
   159  152  160 1   
   160  153  154 1   
   161  153  161 1   
   162  153  162 1   
   163  154  155 1   
   164  154  156 1   
   165  163  164 1   
   166  163  168 1   
   167  164  165 1   
   168  164  166 1   
   169  164  167 1   
   170  170  171 1   
   171  170  172 1   
   172  173  174 1   
   173  173  175 1   
   174  176  177 1   
   175  176  178 1   
   176  179  180 1   
   177  179  181 1   
@<TRIPOS>SUBSTRUCTURE
     1 MOL         1 TEMP              0 ****  ****    0 ROOT
