@<TRIPOS>MOLECULE
MOL
  181   177     1     0     0
SMALL
resp


@<TRIPOS>ATOM
      1 C1          1.9940   -2.2210    4.5390 c3        1 MOL     -0.323534
      2 C2          2.9220   -1.2070    3.8790 c         1 MOL      0.617406
      3 O1          2.5280   -0.1620    3.3230 o         1 MOL     -0.540272
      4 H1          1.7090   -1.8630    5.5280 hc        1 MOL      0.077925
      5 H2          1.1000   -2.3480    3.9270 hc        1 MOL      0.077925
      6 H3          2.5080   -3.1780    4.6340 hc        1 MOL      0.077925
      7 N1          4.1850   -1.5430    3.8400 n         1 MOL     -0.448134
      8 C3          5.3210   -0.7260    3.4230 c3        1 MOL      0.157427
      9 C4          6.2060   -1.4580    2.3900 c         1 MOL      0.669956
     10 O2          6.6920   -0.8920    1.4110 o         1 MOL     -0.483431
     11 C5          6.0850   -0.2850    4.6930 c3        1 MOL      0.025175
     12 C6          7.0780    0.8210    4.4770 c         1 MOL      0.647330
     13 O3          8.1480    0.6260    5.0230 o         1 MOL     -0.717064
     14 O4          6.8210    1.7330    3.6410 o         1 MOL     -0.717064
     15 H4          4.3060   -2.4350    4.2860 hn        1 MOL      0.213026
     16 H5          4.9050    0.1750    2.9670 h1        1 MOL      0.015947
     17 H6          6.4690   -1.1430    5.2380 hc        1 MOL     -0.060437
     18 H7          5.3230    0.1210    5.3580 hc        1 MOL     -0.060437
     19 N2          6.4520   -2.7660    2.5750 n         1 MOL     -0.688231
     20 C7          7.1100   -3.6250    1.5130 c3        1 MOL      0.244959
     21 C8          6.7060   -3.3100    0.0610 c         1 MOL      0.482610
     22 O5          7.3930   -3.5930   -0.9130 o         1 MOL     -0.524796
     23 C9          8.6440   -3.6510    1.7720 c3        1 MOL     -0.401075
     24 H8          6.2090   -3.1760    3.4660 hn        1 MOL      0.348828
     25 H9          6.6510   -4.6110    1.5930 h1        1 MOL      0.061399
     26 H10         9.1230   -4.2290    0.9890 hc        1 MOL      0.109031
     27 H11         9.2350   -2.7410    1.6780 hc        1 MOL      0.109031
     28 H12         8.7330   -4.1700    2.7270 hc        1 MOL      0.109031
     29 N3          5.4080   -2.9830   -0.1240 n         1 MOL     -0.284746
     30 C10         4.8520   -2.7340   -1.4720 c3        1 MOL     -0.030922
     31 C11         5.5790   -1.5440   -2.1590 c         1 MOL      0.491366
     32 O6          5.7670   -1.5270   -3.3890 o         1 MOL     -0.595507
     33 C12         4.6550   -4.0780   -2.2750 c3        1 MOL     -0.105042
     34 C13         3.9130   -5.1530   -1.4750 c         1 MOL      0.645927
     35 O7          4.3900   -6.3170   -1.5190 o         1 MOL     -0.693403
     36 O8          2.8510   -4.8230   -0.8580 o         1 MOL     -0.693403
     37 H13         4.8520   -2.8070    0.7010 hn        1 MOL      0.184333
     38 H14         3.8290   -2.4040   -1.2910 h1        1 MOL      0.056897
     39 H15         5.6200   -4.5330   -2.4900 hc        1 MOL      0.019969
     40 H16         4.0950   -3.8170   -3.1740 hc        1 MOL      0.019969
     41 N4          6.1600   -0.5890   -1.5010 n         1 MOL     -0.040806
     42 C14         6.7650    0.7120   -2.0350 c3        1 MOL     -0.366928
     43 C15         5.8100    1.5960   -2.7800 c         1 MOL      0.719067
     44 O9          6.3310    2.4410   -3.4410 o         1 MOL     -0.583212
     45 H17         6.1680   -0.6570   -0.4920 hn        1 MOL      0.040959
     46 H18         7.6300    0.4760   -2.6580 h1        1 MOL      0.168363
     47 H19         7.1470    1.1990   -1.1350 h1        1 MOL      0.168363
     48 N5          4.4820    1.4280   -2.5170 n         1 MOL     -0.434499
     49 C16         3.3710    2.1650   -3.0500 c3        1 MOL     -0.084074
     50 C17         3.2570    3.5090   -2.3200 c         1 MOL      0.498729
     51 O10         3.1280    3.6100   -1.1260 o         1 MOL     -0.485362
     52 C18         2.1240    1.2650   -2.8950 c3        1 MOL     -0.121129
     53 C19         0.9320    1.9110   -3.6640 c         1 MOL      0.557848
     54 N6         -0.0050    2.6500   -3.1200 n         1 MOL     -0.661873
     55 O11         0.7690    1.5820   -4.8350 o         1 MOL     -0.593486
     56 H20         4.1970    0.6040   -1.9920 hn        1 MOL      0.267798
     57 H21         3.4370    2.3810   -4.1110 h1        1 MOL      0.075452
     58 H22         1.9440    1.0560   -1.8460 hc        1 MOL      0.075973
     59 H23         2.3680    0.3200   -3.3890 hc        1 MOL      0.075973
     60 H24         0.0330    2.8780   -2.1330 hn        1 MOL      0.335886
     61 H25        -0.7780    2.9120   -3.7000 hn        1 MOL      0.335886
     62 N7          3.2520    4.6060   -3.0740 n         1 MOL     -0.251174
     63 C20         3.1540    5.9810   -2.5160 c3        1 MOL     -0.311065
     64 C21         1.7480    6.3430   -2.0990 c         1 MOL      0.700284
     65 O12         0.8370    5.9600   -2.8220 o         1 MOL     -0.541384
     66 H26         3.2540    4.4500   -4.0760 hn        1 MOL      0.252386
     67 H27         3.4690    6.6730   -3.2910 h1        1 MOL      0.126866
     68 H28         3.8440    6.0230   -1.6680 h1        1 MOL      0.126866
     69 N8          1.5610    7.0400   -0.9520 n         1 MOL     -0.482136
     70 C22         0.3400    7.6110   -0.5020 c3        1 MOL     -0.303601
     71 C23        -0.7030    6.7040    0.2000 c         1 MOL      0.572808
     72 O13        -1.7400    7.2400    0.5330 o         1 MOL     -0.565783
     73 C24         0.6410    8.8770    0.3700 c3        1 MOL      0.552005
     74 C25         1.1380    8.6040    1.8390 c3        1 MOL     -0.320680
     75 O14         1.3830    9.7650   -0.2990 oh        1 MOL     -0.630796
     76 H29         2.4170    7.2000   -0.4260 hn        1 MOL      0.277101
     77 H30        -0.1340    7.9570   -1.4220 h1        1 MOL      0.149169
     78 H31        -0.3410    9.3370    0.4610 h1        1 MOL      0.007185
     79 H32         2.2360    9.3490   -0.4450 ho        1 MOL      0.364295
     80 H33         1.8960    7.8260    1.9260 hc        1 MOL      0.072872
     81 H34         1.5900    9.5090    2.2560 hc        1 MOL      0.072872
     82 H35         0.1910    8.3590    2.3360 hc        1 MOL      0.072872
     83 N9         -0.3140    5.4910    0.4920 n         1 MOL     -0.268828
     84 C26        -1.2440    4.4450    1.0160 c3        1 MOL     -0.013056
     85 C27        -1.0590    3.0810    0.4270 c         1 MOL      0.383573
     86 O15        -0.0740    2.8320   -0.2400 o         1 MOL     -0.410585
     87 C28        -1.3160    4.2460    2.5510 c3        1 MOL      0.108341
     88 C29         0.0360    3.9060    3.1550 c3        1 MOL     -0.303600
     89 C30        -1.8930    5.5910    3.1500 c3        1 MOL     -0.150818
     90 C31        -0.0040    2.8680    4.3020 c3        1 MOL     -0.143382
     91 H36         0.5740    5.1860    0.1120 hn        1 MOL      0.197636
     92 H37        -2.2640    4.7220    0.7520 h1        1 MOL      0.055026
     93 H38        -1.9970    3.4150    2.7230 hc        1 MOL      0.024262
     94 H39         0.5120    4.8670    3.3240 hc        1 MOL      0.140007
     95 H40         0.7080    3.4010    2.4600 hc        1 MOL      0.140007
     96 H41        -2.9520    5.6560    2.8970 hc        1 MOL      0.034351
     97 H42        -1.8430    5.4230    4.2260 hc        1 MOL      0.034351
     98 H43        -1.2850    6.4490    2.8600 hc        1 MOL      0.034351
     99 H44        -0.5960    2.0230    3.9340 hc        1 MOL      0.056051
    100 H45         0.9370    2.4360    4.6370 hc        1 MOL      0.056051
    101 H46        -0.3940    3.3320    5.2010 hc        1 MOL      0.056051
    102 N10        -1.9860    2.1050    0.5800 n         1 MOL     -0.372776
    103 C32        -2.0010    0.8220   -0.1760 c3        1 MOL      0.191875
    104 C33        -3.4340    0.2280   -0.2660 c         1 MOL      0.450189
    105 O16        -3.6710   -0.9380    0.0340 o         1 MOL     -0.421704
    106 C34        -0.9330   -0.1620    0.3970 c3        1 MOL     -0.316078
    107 C35        -0.5240   -1.4040   -0.5100 c         1 MOL      0.765072
    108 O17         0.4160   -2.1010   -0.1450 o         1 MOL     -0.718540
    109 O18        -1.1220   -1.8130   -1.5610 o         1 MOL     -0.718540
    110 H47        -2.7930    2.2410    1.1630 hn        1 MOL      0.241700
    111 H48        -1.6780    0.9950   -1.2060 h1        1 MOL     -0.006056
    112 H49        -1.2150   -0.6050    1.3540 hc        1 MOL      0.108607
    113 H50        -0.0160    0.3370    0.6810 hc        1 MOL      0.108607
    114 N11        -4.4290    1.0570   -0.6100 n         1 MOL     -0.484520
    115 C36        -5.8070    0.6190   -0.8980 c3        1 MOL      0.268419
    116 C37        -6.3660   -0.3710    0.1700 c         1 MOL      0.234033
    117 O19        -6.3630   -0.1320    1.3650 o         1 MOL     -0.414367
    118 C38        -6.6680    1.9290   -0.8140 c3        1 MOL     -0.311566
    119 C39        -8.1160    1.6430   -0.9530 ca        1 MOL      0.069835
    120 C40        -8.6520    1.8190   -2.2500 ca        1 MOL     -0.103271
    121 C41        -8.9060    1.2580    0.1210 ca        1 MOL     -0.103271
    122 C42        -9.9830    1.5690   -2.4360 ca        1 MOL     -0.141528
    123 C43       -10.2640    0.9220   -0.1080 ca        1 MOL     -0.141528
    124 C44       -10.7880    1.0250   -1.3880 ca        1 MOL     -0.115840
    125 H51        -4.2750    2.0330   -0.8110 hn        1 MOL      0.248726
    126 H52        -5.8810    0.2860   -1.9390 h1        1 MOL      0.035592
    127 H53        -6.3500    2.5700   -1.6330 hc        1 MOL      0.113327
    128 H54        -6.4920    2.3660    0.1720 hc        1 MOL      0.113327
    129 H55        -8.0950    2.1870   -3.0970 ha        1 MOL      0.111250
    130 H56        -8.4280    1.1360    1.0830 ha        1 MOL      0.111250
    131 H57       -10.4460    1.7290   -3.4000 ha        1 MOL      0.112112
    132 H58       -10.7850    0.4780    0.7380 ha        1 MOL      0.112112
    133 H59       -11.8580    0.9100   -1.5220 ha        1 MOL      0.104338
    134 N12        -6.8950   -1.5420   -0.3460 n         1 MOL     -0.058253
    135 C45        -7.4920   -2.6120    0.4680 c3        1 MOL      0.022769
    136 C46        -6.7030   -3.1360    1.5740 c         1 MOL      0.196346
    137 O20        -7.3310   -3.6270    2.4850 o         1 MOL     -0.506898
    138 C47        -7.9270   -3.7690   -0.4780 c3        1 MOL     -0.076350
    139 C48        -8.2870   -2.9050   -1.6380 c3        1 MOL     -0.043750
    140 C49        -7.2100   -1.7460   -1.7550 c3        1 MOL      0.115585
    141 H60        -8.4340   -2.1630    0.7740 h1        1 MOL      0.106883
    142 H61        -7.0030   -4.2690   -0.7880 hc        1 MOL      0.071470
    143 H62        -8.6750   -4.4050   -0.0130 hc        1 MOL      0.071470
    144 H63        -8.4020   -3.3600   -2.6180 hc        1 MOL      0.000524
    145 H64        -9.2060   -2.4040   -1.3140 hc        1 MOL      0.000524
    146 H65        -6.2770   -2.1200   -2.1880 h1        1 MOL     -0.000790
    147 H66        -7.5620   -0.8690   -2.2840 h1        1 MOL     -0.000790
    148 N13        -5.3590   -3.0050    1.6550 n         1 MOL      0.026050
    149 C50        -4.4560   -3.5820    2.7540 c3        1 MOL     -0.085842
    150 C51        -4.2410   -2.4730    3.8390 c         1 MOL      0.428727
    151 O21        -4.0140   -2.8150    5.0140 o         1 MOL     -0.555792
    152 C52        -3.1470   -4.0010    2.0670 c3        1 MOL      0.150491
    153 C53        -3.3450   -5.0220    0.8910 c3        1 MOL     -0.141253
    154 C54        -2.0900   -4.9980   -0.0410 c         1 MOL      0.621385
    155 O22        -0.8880   -5.1370    0.3810 o         1 MOL     -0.724588
    156 O23        -2.3110   -4.7680   -1.2630 o         1 MOL     -0.724588
    157 H67        -4.8070   -2.5790    0.9210 hn        1 MOL      0.137787
    158 H68        -4.9910   -4.3680    3.2930 h1        1 MOL      0.083426
    159 H69        -2.4750   -4.4330    2.8070 hc        1 MOL     -0.000710
    160 H70        -2.7300   -3.0560    1.7150 hc        1 MOL     -0.000710
    161 H71        -4.2880   -4.8740    0.3550 hc        1 MOL      0.007266
    162 H72        -3.4390   -5.9430    1.4640 hc        1 MOL      0.007266
    163 N14        -4.3640   -1.2200    3.4810 n         1 MOL     -0.193752
    164 C55        -4.3960   -0.0990    4.4800 c3        1 MOL     -0.094754
    165 H73        -4.2050   -0.4960    5.4770 h1        1 MOL      0.062196
    166 H74        -3.6300    0.6340    4.2290 h1        1 MOL      0.062196
    167 H75        -5.3760    0.3780    4.4600 h1        1 MOL      0.062196
    168 H76        -4.7180   -1.0000    2.5570 hn        1 MOL      0.155301
    169 Ca1         0.4290   -4.3200   -1.6760 Ca        1 MOL      1.646806
    170 O24        -1.0110   -3.9720   -3.9460 oh        1 MOL     -0.736402
    171 H77        -0.9050   -3.0570   -4.2070 ho        1 MOL      0.371426
    172 H78        -1.2390   -4.4300   -4.7530 ho        1 MOL      0.371426
    173 O25         1.4970   -2.2240   -3.0510 oh        1 MOL     -0.736402
    174 H79         2.2640   -2.4430   -3.5790 ho        1 MOL      0.371426
    175 H80         0.9440   -1.7050   -3.6260 ho        1 MOL      0.371426
    176 O26         1.9450   -5.1470   -3.9380 oh        1 MOL     -0.736402
    177 H81         1.4480   -5.0770   -4.7480 ho        1 MOL      0.371426
    178 H82         2.5600   -5.8700   -4.0940 ho        1 MOL      0.371426
    179 O27         0.3490   -6.9210   -2.1800 oh        1 MOL     -0.736402
    180 H83        -0.0560   -7.3010   -2.9620 ho        1 MOL      0.371426
    181 H84         0.9600   -7.5950   -1.8820 ho        1 MOL      0.371426
@<TRIPOS>BOND
     1    1    2 1   
     2    1    4 1   
     3    1    5 1   
     4    1    6 1   
     5    2    3 2   
     6    2    7 1   
     7    7    8 1   
     8    7   15 1   
     9    8    9 1   
    10    8   11 1   
    11    8   16 1   
    12    9   10 2   
    13    9   19 1   
    14   11   12 1   
    15   11   17 1   
    16   11   18 1   
    17   12   13 1   
    18   12   14 1   
    19   19   20 1   
    20   19   24 1   
    21   20   21 1   
    22   20   23 1   
    23   20   25 1   
    24   21   22 2   
    25   21   29 1   
    26   23   26 1   
    27   23   27 1   
    28   23   28 1   
    29   29   30 1   
    30   29   37 1   
    31   30   31 1   
    32   30   33 1   
    33   30   38 1   
    34   31   32 2   
    35   31   41 1   
    36   33   34 1   
    37   33   39 1   
    38   33   40 1   
    39   34   35 1   
    40   34   36 1   
    41   41   42 1   
    42   41   45 1   
    43   42   43 1   
    44   42   46 1   
    45   42   47 1   
    46   43   44 2   
    47   43   48 1   
    48   48   49 1   
    49   48   56 1   
    50   49   50 1   
    51   49   52 1   
    52   49   57 1   
    53   50   51 2   
    54   50   62 1   
    55   52   53 1   
    56   52   58 1   
    57   52   59 1   
    58   53   54 1   
    59   53   55 2   
    60   54   60 1   
    61   54   61 1   
    62   62   63 1   
    63   62   66 1   
    64   63   64 1   
    65   63   67 1   
    66   63   68 1   
    67   64   65 2   
    68   64   69 1   
    69   69   70 1   
    70   69   76 1   
    71   70   71 1   
    72   70   73 1   
    73   70   77 1   
    74   71   72 2   
    75   71   83 1   
    76   73   74 1   
    77   73   75 1   
    78   73   78 1   
    79   74   80 1   
    80   74   81 1   
    81   74   82 1   
    82   75   79 1   
    83   83   84 1   
    84   83   91 1   
    85   84   85 1   
    86   84   87 1   
    87   84   92 1   
    88   85   86 2   
    89   85  102 1   
    90   87   88 1   
    91   87   89 1   
    92   87   93 1   
    93   88   90 1   
    94   88   94 1   
    95   88   95 1   
    96   89   96 1   
    97   89   97 1   
    98   89   98 1   
    99   90   99 1   
   100   90  100 1   
   101   90  101 1   
   102  102  103 1   
   103  102  110 1   
   104  103  104 1   
   105  103  106 1   
   106  103  111 1   
   107  104  105 2   
   108  104  114 1   
   109  106  107 1   
   110  106  112 1   
   111  106  113 1   
   112  107  108 1   
   113  107  109 1   
   114  114  115 1   
   115  114  125 1   
   116  115  116 1   
   117  115  118 1   
   118  115  126 1   
   119  116  117 2   
   120  116  134 1   
   121  118  119 1   
   122  118  127 1   
   123  118  128 1   
   124  119  120 ar  
   125  119  121 ar  
   126  120  122 ar  
   127  120  129 1   
   128  121  123 ar  
   129  121  130 1   
   130  122  124 ar  
   131  122  131 1   
   132  123  124 ar  
   133  123  132 1   
   134  124  133 1   
   135  134  135 1   
   136  134  140 1   
   137  135  136 1   
   138  135  138 1   
   139  135  141 1   
   140  136  137 2   
   141  136  148 1   
   142  138  139 1   
   143  138  142 1   
   144  138  143 1   
   145  139  140 1   
   146  139  144 1   
   147  139  145 1   
   148  140  146 1   
   149  140  147 1   
   150  148  149 1   
   151  148  157 1   
   152  149  150 1   
   153  149  152 1   
   154  149  158 1   
   155  150  151 2   
   156  150  163 1   
   157  152  153 1   
   158  152  159 1   
   159  152  160 1   
   160  153  154 1   
   161  153  161 1   
   162  153  162 1   
   163  154  155 1   
   164  154  156 1   
   165  163  164 1   
   166  163  168 1   
   167  164  165 1   
   168  164  166 1   
   169  164  167 1   
   170  170  171 1   
   171  170  172 1   
   172  173  174 1   
   173  173  175 1   
   174  176  177 1   
   175  176  178 1   
   176  179  180 1   
   177  179  181 1   
@<TRIPOS>SUBSTRUCTURE
     1 MOL         1 TEMP              0 ****  ****    0 ROOT
