@<TRIPOS>MOLECULE
MOL
  192   187     1     0     0
SMALL
resp


@<TRIPOS>ATOM
      1 C1          9.9370    1.3790    0.3920 c3        1 MOL     -0.586722
      2 C2          8.7090    0.6660   -0.1780 c         1 MOL      0.816855
      3 O1          7.5950    0.8060    0.2890 o         1 MOL     -0.734783
      4 H1         10.0510    2.3490   -0.0930 hc        1 MOL      0.147043
      5 H2          9.8090    1.5230    1.4650 hc        1 MOL      0.147043
      6 H3         10.8260    0.7760    0.2100 hc        1 MOL      0.147043
      7 N1          8.8890   -0.0730   -1.2520 n         1 MOL     -0.507098
      8 C3          7.8240   -0.7200   -2.0540 c3        1 MOL     -0.046189
      9 C4          7.0920   -2.0030   -1.5120 c         1 MOL      0.456418
     10 O2          6.7960   -2.9970   -2.1930 o         1 MOL     -0.436707
     11 C5          8.3600   -1.0430   -3.5170 c3        1 MOL     -0.357695
     12 C6          9.7090   -1.7090   -3.6000 c         1 MOL      0.820909
     13 O3         10.1570   -2.0340   -4.7270 o         1 MOL     -0.685766
     14 O4         10.2930   -1.9520   -2.5750 o         1 MOL     -0.685766
     15 H4          9.7960   -0.1580   -1.6810 hn        1 MOL      0.285861
     16 H5          7.0390    0.0300   -2.2080 h1        1 MOL      0.134786
     17 H6          8.5410   -0.0550   -3.9440 hc        1 MOL      0.101337
     18 H7          7.7200   -1.6170   -4.1910 hc        1 MOL      0.101337
     19 N2          6.8390   -1.9440   -0.2180 n         1 MOL     -0.180275
     20 C7          6.3700   -3.0360    0.5930 c3        1 MOL     -0.026951
     21 C8          4.9420   -3.3690    0.2650 c         1 MOL      0.380830
     22 O5          4.6980   -4.4970   -0.1690 o         1 MOL     -0.510747
     23 C9          6.7310   -2.9380    2.1070 c3        1 MOL      0.187556
     24 C10         8.2040   -2.8780    2.4810 c3        1 MOL     -0.097960
     25 C11         8.5200   -2.1960    3.8280 c3        1 MOL     -0.008058
     26 C12         9.9580   -2.5630    4.1710 c3        1 MOL      0.121775
     27 N3         10.4580   -1.8330    5.3560 n4        1 MOL     -0.275318
     28 H8          6.9740   -1.0990    0.3140 hn        1 MOL      0.262610
     29 H9          6.9500   -3.8820    0.2330 h1        1 MOL      0.065805
     30 H10         6.2120   -3.6620    2.7420 hc        1 MOL     -0.018139
     31 H11         6.3490   -1.9640    2.4050 hc        1 MOL     -0.018139
     32 H12         8.7130   -2.2550    1.7470 hc        1 MOL      0.012152
     33 H13         8.5090   -3.9210    2.5040 hc        1 MOL      0.012152
     34 H14         7.8130   -2.5150    4.5920 hc        1 MOL      0.004239
     35 H15         8.5100   -1.1070    3.7880 hc        1 MOL      0.004239
     36 H16        10.7190   -2.5550    3.3930 hx        1 MOL      0.066723
     37 H17         9.8740   -3.6090    4.4690 hx        1 MOL      0.066723
     38 H18        10.0230   -0.9390    5.5020 hn        1 MOL      0.252258
     39 H19        10.1550   -2.3020    6.1910 hn        1 MOL      0.252258
     40 H20        11.4510   -1.6440    5.3250 hn        1 MOL      0.252258
     41 N4          3.9760   -2.4720    0.4240 n         1 MOL     -0.326431
     42 C13         4.0450   -1.0410    0.9340 c3        1 MOL      0.017420
     43 C14         3.9100   -0.0330   -0.2000 c         1 MOL      0.206107
     44 O6          3.5680   -0.3380   -1.3400 o         1 MOL     -0.443265
     45 C15         2.8980   -0.9610    1.9290 c3        1 MOL     -0.270638
     46 C16         1.5630   -1.6020    1.6170 c         1 MOL      0.641292
     47 O7          0.8280   -0.9240    0.8310 o         1 MOL     -0.653192
     48 O8          1.2980   -2.6640    2.2410 o         1 MOL     -0.653192
     49 H21         3.1000   -2.7550    0.0170 hn        1 MOL      0.347782
     50 H22         5.0050   -0.8110    1.3850 h1        1 MOL      0.105754
     51 H23         2.7640    0.0900    2.1680 hc        1 MOL      0.046846
     52 H24         3.1890   -1.4940    2.8260 hc        1 MOL      0.046846
     53 N5          4.1000    1.2570    0.1630 n         1 MOL     -0.145848
     54 C17         4.0610    2.3870   -0.7650 c3        1 MOL     -0.084456
     55 C18         2.6280    2.4180   -1.4630 c         1 MOL      0.594374
     56 O9          1.6790    1.7290   -1.0970 o         1 MOL     -0.580490
     57 H25         4.1510    1.4610    1.1570 hn        1 MOL      0.221354
     58 H26         4.8790    2.3960   -1.4770 h1        1 MOL      0.080082
     59 H27         4.1280    3.2490   -0.0960 h1        1 MOL      0.080082
     60 N6          2.5440    3.3740   -2.3730 n         1 MOL     -0.443749
     61 C19         1.3220    4.0550   -2.8630 c3        1 MOL      0.243477
     62 C20         1.5830    5.5130   -3.2900 c         1 MOL      0.358176
     63 O10         2.7120    5.9680   -3.4250 o         1 MOL     -0.534819
     64 C21         0.7170    3.4200   -4.1450 c3        1 MOL     -0.223017
     65 C22         0.2800    2.0190   -3.7970 c         1 MOL      0.718859
     66 O11         0.8920    1.0110   -4.2290 o         1 MOL     -0.725022
     67 O12        -0.6230    1.8330   -3.0010 o         1 MOL     -0.725022
     68 H28         3.4240    3.8410   -2.5240 hn        1 MOL      0.250679
     69 H29         0.5800    4.0210   -2.0670 h1        1 MOL      0.074376
     70 H30         1.4190    3.3840   -4.9820 hc        1 MOL      0.066892
     71 H31        -0.2030    3.9450   -4.3920 hc        1 MOL      0.066892
     72 N7          0.6800    6.4460   -3.4860 n         1 MOL     -0.242949
     73 C23        -0.7770    6.3230   -3.2940 c3        1 MOL     -0.411748
     74 C24        -1.2220    6.0750   -1.7550 c         1 MOL      0.715698
     75 O13        -0.7100    6.6160   -0.7690 o         1 MOL     -0.565878
     76 H32         1.1800    7.2600   -3.8200 hn        1 MOL      0.292063
     77 H33        -1.2820    5.7320   -4.0520 h1        1 MOL      0.156587
     78 H34        -0.9980    7.3440   -3.5850 h1        1 MOL      0.156587
     79 N8         -2.3040    5.3300   -1.5400 n         1 MOL     -0.668277
     80 C25        -2.7330    4.9470   -0.1770 c3        1 MOL      0.321642
     81 C26        -1.9090    3.8860    0.4660 c         1 MOL      0.561382
     82 O14        -1.3180    2.9780   -0.1540 o         1 MOL     -0.618873
     83 C27        -4.2310    4.6790    0.0390 c3        1 MOL      0.184048
     84 C28        -4.6990    3.3350   -0.5350 c3        1 MOL      0.049486
     85 O15        -5.0170    5.7540   -0.5550 oh        1 MOL     -0.638533
     86 H35        -2.7310    4.9660   -2.3880 hn        1 MOL      0.344044
     87 H36        -2.6290    5.8180    0.4670 h1        1 MOL      0.001652
     88 H37        -4.3380    4.6940    1.1220 h1        1 MOL     -0.031985
     89 H38        -4.9060    6.6060   -0.1230 ho        1 MOL      0.407878
     90 H39        -5.6590    3.3540   -1.0450 hc        1 MOL      0.023025
     91 H40        -4.0050    3.0340   -1.3310 hc        1 MOL      0.023025
     92 H41        -4.5920    2.5200    0.1760 hc        1 MOL      0.023025
     93 N9         -1.8640    3.9310    1.8140 n         1 MOL     -0.546854
     94 C29        -1.2120    2.9680    2.6890 c3        1 MOL      0.056802
     95 C30        -1.6910    1.5150    2.5590 c         1 MOL      0.364669
     96 O16        -1.8250    0.8530    1.5540 o         1 MOL     -0.492787
     97 C31         0.3510    3.0480    2.7030 c3        1 MOL      0.254820
     98 C32         0.8460    4.5110    2.7630 c3        1 MOL     -0.170041
     99 C33         1.0080    2.2310    3.8210 c3        1 MOL     -0.393901
    100 C34         2.3650    4.7620    2.8080 c3        1 MOL     -0.031532
    101 H42        -2.2780    4.7700    2.2060 hn        1 MOL      0.282879
    102 H43        -1.5510    3.3020    3.6630 h1        1 MOL      0.060168
    103 H44         0.6740    2.5460    1.7920 hc        1 MOL     -0.011100
    104 H45         0.2700    5.0710    3.4920 hc        1 MOL      0.052188
    105 H46         0.6050    4.9390    1.7910 hc        1 MOL      0.052188
    106 H47         0.7710    1.1750    3.8940 hc        1 MOL      0.087948
    107 H48         2.0970    2.2240    3.7890 hc        1 MOL      0.087948
    108 H49         0.6560    2.5790    4.7960 hc        1 MOL      0.087948
    109 H50         2.5660    5.8300    2.8080 hc        1 MOL      0.022328
    110 H51         2.8540    4.5160    3.7470 hc        1 MOL      0.022328
    111 H52         2.8430    4.3380    1.9200 hc        1 MOL      0.022328
    112 N10        -2.1480    1.0520    3.7310 n         1 MOL     -0.185020
    113 C35        -2.6820   -0.3260    3.8830 c3        1 MOL     -0.277283
    114 C36        -4.0400   -0.5340    3.2710 c         1 MOL      0.293303
    115 O17        -4.5370   -1.7020    3.1790 o         1 MOL     -0.500994
    116 C37        -2.7380   -0.7800    5.4120 c3        1 MOL      0.543935
    117 C38        -3.9520   -0.3060    6.2120 c3        1 MOL     -0.439856
    118 O18        -1.5800   -0.3070    6.1250 oh        1 MOL     -0.647044
    119 H53        -2.1400    1.7030    4.5020 hn        1 MOL      0.207549
    120 H54        -1.9860   -0.9980    3.3750 h1        1 MOL      0.119647
    121 H55        -2.7090   -1.8720    5.4890 h1        1 MOL      0.007563
    122 H56        -0.7460   -0.6410    5.7870 ho        1 MOL      0.397419
    123 H57        -4.8800   -0.6830    5.7820 hc        1 MOL      0.121111
    124 H58        -3.7100   -0.6050    7.2280 hc        1 MOL      0.121111
    125 H59        -3.8770    0.7760    6.1870 hc        1 MOL      0.121111
    126 N11        -4.7290    0.5360    2.9430 n         1 MOL     -0.040906
    127 C39        -6.1110    0.6120    2.4450 c3        1 MOL     -0.299824
    128 C40        -6.1650   -0.0960    1.1120 c         1 MOL      0.851528
    129 O19        -5.6560    0.3620    0.1060 o         1 MOL     -0.563255
    130 C41        -6.6890    2.0670    2.3530 c3        1 MOL      0.386031
    131 C42        -8.0180    2.2680    1.5650 c3        1 MOL     -0.329157
    132 O20        -6.9300    2.5220    3.6590 oh        1 MOL     -0.556919
    133 H60        -4.3540    1.4510    3.1330 hn        1 MOL      0.162274
    134 H61        -6.7610    0.1210    3.1730 h1        1 MOL      0.103514
    135 H62        -5.9430    2.6320    1.7950 h1        1 MOL     -0.044205
    136 H63        -6.0690    2.5870    4.0930 ho        1 MOL      0.345600
    137 H64        -8.8080    1.6660    2.0150 hc        1 MOL      0.104237
    138 H65        -8.3740    3.2970    1.6240 hc        1 MOL      0.104237
    139 H66        -7.8980    2.0070    0.5140 hc        1 MOL      0.104237
    140 N12        -6.7900   -1.3190    1.1020 n         1 MOL     -0.818470
    141 C43        -6.7510   -2.2990    0.0130 c3        1 MOL      0.483088
    142 C44        -5.3420   -2.3800   -0.5680 c         1 MOL      0.273363
    143 O21        -5.0480   -1.8160   -1.6690 o         1 MOL     -0.485524
    144 C45        -7.8740   -1.8230   -0.9890 c3        1 MOL     -0.942285
    145 C46        -8.0660   -2.9380   -2.0670 c3        1 MOL      0.405745
    146 C47        -9.3670   -2.6120   -2.9150 c3        1 MOL     -0.190201
    147 C48        -9.6880   -3.5940   -3.9400 c3        1 MOL     -0.405792
    148 N13       -10.1990   -4.8420   -3.3160 n4        1 MOL     -0.091954
    149 H67        -7.0960   -1.7410    1.9630 hn        1 MOL      0.357216
    150 H68        -6.9940   -3.2940    0.3870 h1        1 MOL      0.009951
    151 H69        -7.6230   -0.8630   -1.4450 hc        1 MOL      0.280933
    152 H70        -8.7840   -1.7620   -0.3960 hc        1 MOL      0.280933
    153 H71        -8.1480   -3.9140   -1.5900 hc        1 MOL      0.000525
    154 H72        -7.2900   -2.9870   -2.8310 hc        1 MOL      0.000525
    155 H73        -9.1430   -1.6470   -3.3850 hc        1 MOL      0.085839
    156 H74       -10.1720   -2.4630   -2.1990 hc        1 MOL      0.085839
    157 H75        -8.8610   -3.7400   -4.6320 hx        1 MOL      0.241864
    158 H76       -10.5700   -3.1300   -4.3820 hx        1 MOL      0.241864
    159 H77        -9.5260   -5.2720   -2.6950 hn        1 MOL      0.224284
    160 H78       -10.9880   -4.7070   -2.6880 hn        1 MOL      0.224284
    161 H79       -10.4950   -5.5940   -3.9160 hn        1 MOL      0.224284
    162 N14        -4.5260   -3.2440    0.0490 n         1 MOL     -0.314516
    163 C49        -3.1960   -3.5070   -0.4800 c3        1 MOL     -0.034935
    164 C50        -1.9500   -2.9100    0.1750 c         1 MOL      0.559848
    165 O22        -1.3890   -2.0230   -0.4130 o         1 MOL     -0.641962
    166 C51        -3.0820   -4.9790   -0.8950 c3        1 MOL      0.407838
    167 C52        -4.1240   -5.2690   -2.0220 c3        1 MOL     -0.291788
    168 C53        -4.0370   -6.6430   -2.6430 c         1 MOL      0.709533
    169 O23        -2.9600   -7.1640   -2.8940 o         1 MOL     -0.677593
    170 O24        -5.1110   -7.2790   -2.6910 o         1 MOL     -0.677593
    171 H80        -4.8280   -3.6270    0.9350 hn        1 MOL      0.265368
    172 H81        -3.0780   -3.0090   -1.4410 h1        1 MOL      0.136919
    173 H82        -3.3020   -5.6680   -0.0750 hc        1 MOL     -0.074392
    174 H83        -2.0320   -5.1830   -1.0980 hc        1 MOL     -0.074392
    175 H84        -3.8310   -4.5620   -2.8040 hc        1 MOL      0.004996
    176 H85        -5.1330   -5.1490   -1.6180 hc        1 MOL      0.004996
    177 N15        -1.5590   -3.1800    1.4470 n         1 MOL     -0.331599
    178 C54        -1.7430   -4.4360    2.2650 c3        1 MOL     -0.076381
    179 H86        -2.6420   -4.9560    1.9350 h1        1 MOL      0.053514
    180 H87        -0.8790   -5.0870    2.1310 h1        1 MOL      0.053514
    181 H88        -1.8410   -4.1740    3.3180 h1        1 MOL      0.053514
    182 H89        -0.9230   -2.4890    1.8190 hn        1 MOL      0.345263
    183 Ca1        -0.7860    0.3750   -0.9500 Ca        1 MOL      1.755518
    184 O25         1.1580   -0.8780   -2.4340 oh        1 MOL     -0.905205
    185 H90         1.1060   -0.1590   -3.0640 ho        1 MOL      0.448571
    186 H91         2.0170   -0.7730   -2.0160 ho        1 MOL      0.448571
    187 O26        -3.3360    0.2290   -1.0170 oh        1 MOL     -0.905205
    188 H92        -4.0500    0.1480   -0.3820 ho        1 MOL      0.448571
    189 H93        -3.5630   -0.3820   -1.7130 ho        1 MOL      0.448571
    190 O27        -2.3460   -0.9080   -3.3030 oh        1 MOL     -0.905205
    191 H94        -2.4240   -0.3530   -4.0700 ho        1 MOL      0.448571
    192 H95        -1.8530   -1.6640   -3.6050 ho        1 MOL      0.448571
@<TRIPOS>BOND
     1    1    2 1   
     2    1    4 1   
     3    1    5 1   
     4    1    6 1   
     5    2    3 2   
     6    2    7 1   
     7    7    8 1   
     8    7   15 1   
     9    8    9 1   
    10    8   11 1   
    11    8   16 1   
    12    9   10 2   
    13    9   19 1   
    14   11   12 1   
    15   11   17 1   
    16   11   18 1   
    17   12   13 1   
    18   12   14 1   
    19   19   20 1   
    20   19   28 1   
    21   20   21 1   
    22   20   23 1   
    23   20   29 1   
    24   21   22 2   
    25   21   41 1   
    26   23   24 1   
    27   23   30 1   
    28   23   31 1   
    29   24   25 1   
    30   24   32 1   
    31   24   33 1   
    32   25   26 1   
    33   25   34 1   
    34   25   35 1   
    35   26   27 1   
    36   26   36 1   
    37   26   37 1   
    38   27   38 1   
    39   27   39 1   
    40   27   40 1   
    41   41   42 1   
    42   41   49 1   
    43   42   43 1   
    44   42   45 1   
    45   42   50 1   
    46   43   44 2   
    47   43   53 1   
    48   45   46 1   
    49   45   51 1   
    50   45   52 1   
    51   46   47 1   
    52   46   48 1   
    53   53   54 1   
    54   53   57 1   
    55   54   55 1   
    56   54   58 1   
    57   54   59 1   
    58   55   56 2   
    59   55   60 1   
    60   60   61 1   
    61   60   68 1   
    62   61   62 1   
    63   61   64 1   
    64   61   69 1   
    65   62   63 2   
    66   62   72 1   
    67   64   65 1   
    68   64   70 1   
    69   64   71 1   
    70   65   66 1   
    71   65   67 1   
    72   72   73 1   
    73   72   76 1   
    74   73   74 1   
    75   73   77 1   
    76   73   78 1   
    77   74   75 2   
    78   74   79 1   
    79   79   80 1   
    80   79   86 1   
    81   80   81 1   
    82   80   83 1   
    83   80   87 1   
    84   81   82 2   
    85   81   93 1   
    86   83   84 1   
    87   83   85 1   
    88   83   88 1   
    89   84   90 1   
    90   84   91 1   
    91   84   92 1   
    92   85   89 1   
    93   93   94 1   
    94   93  101 1   
    95   94   95 1   
    96   94   97 1   
    97   94  102 1   
    98   95   96 2   
    99   95  112 1   
   100   97   98 1   
   101   97   99 1   
   102   97  103 1   
   103   98  100 1   
   104   98  104 1   
   105   98  105 1   
   106   99  106 1   
   107   99  107 1   
   108   99  108 1   
   109  100  109 1   
   110  100  110 1   
   111  100  111 1   
   112  112  113 1   
   113  112  119 1   
   114  113  114 1   
   115  113  116 1   
   116  113  120 1   
   117  114  115 2   
   118  114  126 1   
   119  116  117 1   
   120  116  118 1   
   121  116  121 1   
   122  117  123 1   
   123  117  124 1   
   124  117  125 1   
   125  118  122 1   
   126  126  127 1   
   127  126  133 1   
   128  127  128 1   
   129  127  130 1   
   130  127  134 1   
   131  128  129 2   
   132  128  140 1   
   133  130  131 1   
   134  130  132 1   
   135  130  135 1   
   136  131  137 1   
   137  131  138 1   
   138  131  139 1   
   139  132  136 1   
   140  140  141 1   
   141  140  149 1   
   142  141  142 1   
   143  141  144 1   
   144  141  150 1   
   145  142  143 2   
   146  142  162 1   
   147  144  145 1   
   148  144  151 1   
   149  144  152 1   
   150  145  146 1   
   151  145  153 1   
   152  145  154 1   
   153  146  147 1   
   154  146  155 1   
   155  146  156 1   
   156  147  148 1   
   157  147  157 1   
   158  147  158 1   
   159  148  159 1   
   160  148  160 1   
   161  148  161 1   
   162  162  163 1   
   163  162  171 1   
   164  163  164 1   
   165  163  166 1   
   166  163  172 1   
   167  164  165 2   
   168  164  177 1   
   169  166  167 1   
   170  166  173 1   
   171  166  174 1   
   172  167  168 1   
   173  167  175 1   
   174  167  176 1   
   175  168  169 1   
   176  168  170 1   
   177  177  178 1   
   178  177  182 1   
   179  178  179 1   
   180  178  180 1   
   181  178  181 1   
   182  184  185 1   
   183  184  186 1   
   184  187  188 1   
   185  187  189 1   
   186  190  191 1   
   187  190  192 1   
@<TRIPOS>SUBSTRUCTURE
     1 MOL         1 TEMP              0 ****  ****    0 ROOT
