@<TRIPOS>MOLECULE
MOL
  178   175     1     0     0
SMALL
resp


@<TRIPOS>ATOM
      1 C1         -1.2790   -7.0310   -3.0240 c3        1 MOL     -0.359579
      2 C2         -2.5790   -6.5800   -2.3720 c         1 MOL      0.664475
      3 O1         -2.9740   -6.9990   -1.2510 o         1 MOL     -0.588145
      4 H1         -0.4510   -6.4450   -2.6250 hc        1 MOL      0.091171
      5 H2         -1.1120   -8.0870   -2.8110 hc        1 MOL      0.091171
      6 H3         -1.3410   -6.8820   -4.1030 hc        1 MOL      0.091171
      7 N1         -3.3600   -5.7450   -3.0780 n         1 MOL     -0.675749
      8 C3         -4.6850   -5.2780   -2.6360 c3        1 MOL      0.450943
      9 C4         -4.5190   -4.3790   -1.3490 c         1 MOL      0.671034
     10 O2         -3.6480   -3.5460   -1.2750 o         1 MOL     -0.583623
     11 C5         -5.4010   -4.5940   -3.7430 c3        1 MOL     -0.432103
     12 C6         -6.9060   -4.6440   -3.5820 c         1 MOL      0.803086
     13 O3         -7.3830   -5.1290   -2.5220 o         1 MOL     -0.739891
     14 O4         -7.6910   -4.3070   -4.4990 o         1 MOL     -0.739891
     15 H4         -3.0310   -5.3930   -3.9670 hn        1 MOL      0.307484
     16 H5         -5.2480   -6.1700   -2.3670 h1        1 MOL     -0.001219
     17 H6         -5.1160   -5.2340   -4.5870 hc        1 MOL      0.064926
     18 H7         -5.0820   -3.5580   -3.8320 hc        1 MOL      0.064926
     19 N2         -5.5080   -4.6090   -0.4400 n         1 MOL     -0.729136
     20 C7         -5.6790   -3.9420    0.8450 c3        1 MOL      0.324190
     21 C8         -4.5070   -4.1890    1.8090 c         1 MOL      0.616561
     22 O5         -3.9290   -5.2880    1.9040 o         1 MOL     -0.561338
     23 C9         -7.0420   -4.2760    1.4000 c3        1 MOL     -0.312593
     24 H8         -6.2550   -5.2440   -0.6710 hn        1 MOL      0.343379
     25 H9         -5.7030   -2.8660    0.6890 h1        1 MOL      0.120982
     26 H10        -7.8370   -3.9700    0.7170 hc        1 MOL      0.075025
     27 H11        -7.2420   -5.3040    1.6930 hc        1 MOL      0.075025
     28 H12        -7.1120   -3.6750    2.3110 hc        1 MOL      0.075025
     29 N3         -4.0850   -3.2670    2.7240 n         1 MOL     -0.622378
     30 C10        -4.6370   -1.8920    2.9920 c3        1 MOL      0.072382
     31 C11        -4.3500   -0.8060    1.9280 c         1 MOL      0.035723
     32 O6         -3.4940   -1.0840    1.0910 o         1 MOL     -0.342858
     33 C12        -4.1590   -1.3670    4.4330 c3        1 MOL     -0.195741
     34 C13        -2.6820   -1.6520    4.5650 c         1 MOL      0.658812
     35 O7         -2.2710   -2.4640    5.4480 o         1 MOL     -0.644808
     36 O8         -1.9210   -0.9700    3.8030 o         1 MOL     -0.644808
     37 H13        -3.5250   -3.6420    3.4770 hn        1 MOL      0.339497
     38 H14        -5.7240   -1.9540    2.9600 h1        1 MOL      0.076570
     39 H15        -4.7060   -1.8930    5.2260 hc        1 MOL      0.039746
     40 H16        -4.4100   -0.3130    4.5310 hc        1 MOL      0.039746
     41 N4         -5.0310    0.3000    2.0410 n         1 MOL     -0.333213
     42 C14        -4.7460    1.4680    1.2710 c3        1 MOL      0.471223
     43 C15        -5.8290    1.7370    0.1110 c         1 MOL      0.359646
     44 O9         -6.2340    0.8000   -0.5540 o         1 MOL     -0.459772
     45 H17        -5.7390    0.4280    2.7550 hn        1 MOL      0.276814
     46 H18        -3.7180    1.3340    0.9230 h1        1 MOL     -0.086241
     47 H19        -4.7310    2.4370    1.7770 h1        1 MOL     -0.086241
     48 N5         -6.2070    2.9990   -0.1610 n         1 MOL     -0.477143
     49 C16        -5.6930    4.2790    0.3140 c3        1 MOL     -0.030611
     50 C17        -5.1310    5.0920   -0.9150 c         1 MOL      0.580366
     51 O10        -4.9270    6.3340   -0.8040 o         1 MOL     -0.529633
     52 C18        -6.7150    5.0270    1.1420 c3        1 MOL     -0.183679
     53 C19        -6.7400    4.4870    2.5860 c         1 MOL      0.670542
     54 N6         -5.7940    4.7340    3.3530 n         1 MOL     -0.714759
     55 O11        -7.7020    3.9820    3.0440 o         1 MOL     -0.596330
     56 H20        -7.0300    3.0450   -0.7340 hn        1 MOL      0.298927
     57 H21        -4.7670    4.0690    0.8460 h1        1 MOL      0.107335
     58 H22        -7.7170    5.0330    0.7250 hc        1 MOL      0.081453
     59 H23        -6.5130    6.0910    1.2780 hc        1 MOL      0.081453
     60 H24        -4.9490    5.2360    3.1290 hn        1 MOL      0.348484
     61 H25        -6.0420    4.4230    4.2820 hn        1 MOL      0.348484
     62 N7         -4.9410    4.3770   -2.0560 n         1 MOL     -0.446624
     63 C20        -4.5970    5.1150   -3.2830 c3        1 MOL     -0.062926
     64 C21        -3.0870    5.5460   -3.2650 c         1 MOL      0.521702
     65 O12        -2.7460    6.4710   -3.9610 o         1 MOL     -0.537104
     66 H26        -4.9480    3.3660   -2.0520 hn        1 MOL      0.329472
     67 H27        -5.2260    5.9960   -3.4210 h1        1 MOL      0.093199
     68 H28        -4.8350    4.4950   -4.1550 h1        1 MOL      0.093199
     69 N8         -2.3010    4.7950   -2.5050 n         1 MOL     -0.383640
     70 C22        -0.8690    5.0890   -2.3030 c3        1 MOL      0.130268
     71 C23         0.0430    3.9420   -2.0790 c         1 MOL      0.355277
     72 O13        -0.3580    2.7640   -1.8140 o         1 MOL     -0.500283
     73 C24        -0.7140    6.1060   -1.1480 c3        1 MOL      0.316008
     74 C25        -1.2860    7.4280   -1.2900 c3        1 MOL     -0.438363
     75 O14        -1.2390    5.5190    0.0850 oh        1 MOL     -0.676416
     76 H29        -2.6630    3.9630   -2.0500 hn        1 MOL      0.256997
     77 H30        -0.4510    5.5870   -3.1790 h1        1 MOL      0.043938
     78 H31         0.3490    6.2390   -0.9620 h1        1 MOL     -0.000422
     79 H32        -0.8600    5.9520    0.8510 ho        1 MOL      0.431118
     80 H33        -0.9940    8.0620   -0.4500 hc        1 MOL      0.118486
     81 H34        -0.8080    7.9400   -2.1230 hc        1 MOL      0.118486
     82 H35        -2.3680    7.3390   -1.4220 hc        1 MOL      0.118486
     83 N9          1.3420    4.2880   -2.0410 n         1 MOL     -0.196811
     84 C26         2.3800    3.4660   -1.4790 c3        1 MOL     -0.369855
     85 C27         2.6640    3.6530    0.0140 c         1 MOL      0.700293
     86 O15         3.0190    4.7870    0.4000 o         1 MOL     -0.616133
     87 C28         3.6520    3.6160   -2.3320 c3        1 MOL      0.187102
     88 C29         4.8010    2.7420   -1.7520 c3        1 MOL      0.114204
     89 C30         3.4470    3.1700   -3.8010 c3        1 MOL     -0.306445
     90 C31         6.1400    2.9390   -2.5500 c3        1 MOL     -0.150290
     91 H36         1.5770    5.1950   -2.4180 hn        1 MOL      0.232745
     92 H37         2.1620    2.4180   -1.6590 h1        1 MOL      0.283500
     93 H38         3.9990    4.6470   -2.2330 hc        1 MOL     -0.013882
     94 H39         4.5230    1.6930   -1.7500 hc        1 MOL     -0.010604
     95 H40         4.9650    3.0030   -0.7060 hc        1 MOL     -0.010604
     96 H41         3.1950    2.1100   -3.8410 hc        1 MOL      0.066158
     97 H42         2.5940    3.7070   -4.2210 hc        1 MOL      0.066158
     98 H43         4.3290    3.3430   -4.4140 hc        1 MOL      0.066158
     99 H44         6.2220    2.1330   -3.2790 hc        1 MOL      0.020819
    100 H45         6.1670    3.9190   -3.0360 hc        1 MOL      0.020819
    101 H46         6.9500    2.9110   -1.8150 hc        1 MOL      0.020819
    102 N10         2.6140    2.6430    0.8700 n         1 MOL     -0.423752
    103 C32         2.9580    2.7720    2.2750 c3        1 MOL      0.040568
    104 C33         4.0580    1.7870    2.7720 c         1 MOL      0.502024
    105 O16         4.6200    1.8730    3.8820 o         1 MOL     -0.558926
    106 C34         1.7340    2.7100    3.2130 c3        1 MOL     -0.041668
    107 C35         0.8820    1.5040    2.8540 c         1 MOL      0.740618
    108 O17        -0.2280    1.6840    2.2910 o         1 MOL     -0.761752
    109 O18         1.1150    0.3650    3.3190 o         1 MOL     -0.761752
    110 H47         2.4370    1.7170    0.4930 hn        1 MOL      0.198053
    111 H48         3.3650    3.7530    2.5410 h1        1 MOL      0.085529
    112 H49         1.1570    3.6250    3.0940 hc        1 MOL      0.013733
    113 H50         2.1350    2.6800    4.2270 hc        1 MOL      0.013733
    114 N11         4.5020    0.9410    1.8420 n         1 MOL     -0.586828
    115 C36         5.7580    0.1440    1.7850 c3        1 MOL      0.317077
    116 C37         5.5340   -1.1720    1.0060 c         1 MOL      0.120049
    117 O19         6.1450   -1.2440   -0.0600 o         1 MOL     -0.358974
    118 C38         6.8360    1.0260    1.1500 c3        1 MOL     -0.132002
    119 C39         8.2750    0.5330    1.2140 ca        1 MOL      0.079457
    120 C40         9.1090    0.7670    0.0930 ca        1 MOL     -0.190521
    121 C41         8.7730   -0.2380    2.2660 ca        1 MOL     -0.190521
    122 C42        10.4360    0.2590    0.0330 ca        1 MOL     -0.076215
    123 C43        10.1340   -0.7320    2.1810 ca        1 MOL     -0.076215
    124 C44        10.9690   -0.4630    1.1140 ca        1 MOL     -0.155843
    125 H51         3.9210    0.9040    1.0170 hn        1 MOL      0.357934
    126 H52         6.0630   -0.1530    2.7850 h1        1 MOL      0.050357
    127 H53         6.7910    1.9970    1.6390 hc        1 MOL      0.083971
    128 H54         6.5320    1.1920    0.1140 hc        1 MOL      0.083971
    129 H55         8.6910    1.1840   -0.8020 ha        1 MOL      0.118340
    130 H56         8.1170   -0.4510    3.0880 ha        1 MOL      0.118340
    131 H57        11.1040    0.4380   -0.8080 ha        1 MOL      0.087484
    132 H58        10.6130   -1.1720    3.0420 ha        1 MOL      0.087484
    133 H59        12.0300   -0.6340    1.2600 ha        1 MOL      0.106320
    134 N12         4.7690   -2.1620    1.4970 n         1 MOL     -0.013997
    135 C45         4.7510   -3.4760    0.8120 c3        1 MOL      0.051926
    136 C46         4.5230   -3.6270   -0.6790 c         1 MOL      0.256368
    137 O20         4.6400   -4.7170   -1.2430 o         1 MOL     -0.501950
    138 C47         3.7540   -4.3550    1.6330 c3        1 MOL     -0.028311
    139 C48         4.0750   -3.8120    2.9960 c3        1 MOL     -0.070190
    140 C49         4.0990   -2.3020    2.7540 c3        1 MOL     -0.130389
    141 H60         5.7640   -3.8880    0.8400 h1        1 MOL      0.052699
    142 H61         2.7390   -4.1190    1.3150 hc        1 MOL      0.041094
    143 H62         4.0210   -5.4090    1.6050 hc        1 MOL      0.041094
    144 H63         3.3630   -4.1440    3.7450 hc        1 MOL      0.038823
    145 H64         5.0470   -4.1760    3.3330 hc        1 MOL      0.038823
    146 H65         3.0710   -1.9480    2.6960 h1        1 MOL      0.118800
    147 H66         4.6600   -1.7790    3.5350 h1        1 MOL      0.118800
    148 N13         4.0480   -2.5780   -1.2890 n         1 MOL     -0.077243
    149 C50         3.8390   -2.4010   -2.7260 c3        1 MOL     -0.139811
    150 C51         5.1500   -2.4090   -3.4800 c         1 MOL      0.462441
    151 O21         5.1920   -3.0150   -4.5200 o         1 MOL     -0.559946
    152 C52         3.2740   -0.9760   -3.0100 c3        1 MOL     -0.105505
    153 C53         1.9300   -0.6830   -2.4210 c3        1 MOL      0.084436
    154 C54         2.0640   -0.4030   -0.9460 c         1 MOL      0.598409
    155 O22         1.2160   -0.8820   -0.1640 o         1 MOL     -0.749911
    156 O23         3.0550    0.2610   -0.5520 o         1 MOL     -0.749911
    157 H67         3.9570   -1.7230   -0.7610 hn        1 MOL      0.254731
    158 H68         3.1470   -3.1100   -3.1990 h1        1 MOL      0.130571
    159 H69         2.9780   -0.9170   -4.0630 hc        1 MOL      0.034038
    160 H70         3.9510   -0.1400   -2.8570 hc        1 MOL      0.034038
    161 H71         1.2100   -1.4840   -2.5820 hc        1 MOL     -0.007006
    162 H72         1.6580    0.2810   -2.8480 hc        1 MOL     -0.007006
    163 N14         6.1950   -1.8330   -2.9020 n         1 MOL     -0.063938
    164 C55         7.5650   -1.8790   -3.4320 c3        1 MOL     -0.179634
    165 H73         7.8030   -0.9270   -3.9080 h1        1 MOL      0.073756
    166 H74         8.2660   -2.0620   -2.6170 h1        1 MOL      0.073756
    167 H75         7.6440   -2.6820   -4.1660 h1        1 MOL      0.073756
    168 H76         6.1000   -1.4720   -1.9630 hn        1 MOL      0.092859
    169 Ca1        -0.5670   -0.8120    1.6190 Ca        1 MOL      1.756203
    170 O24         0.2960   -3.0400    2.9980 oh        1 MOL     -0.835349
    171 H77         0.0920   -3.6990    2.3350 ho        1 MOL      0.406999
    172 H78         0.3320   -3.5210    3.8270 ho        1 MOL      0.406999
    173 O25        -1.4260   -3.0090    0.1790 oh        1 MOL     -0.835349
    174 H79        -0.9630   -3.8490    0.2400 ho        1 MOL      0.406999
    175 H80        -2.1330   -3.1710   -0.4500 ho        1 MOL      0.406999
    176 O26        -1.4730    1.0060   -0.1770 oh        1 MOL     -0.835349
    177 H81        -0.8210    1.3720   -0.7810 ho        1 MOL      0.406999
    178 H82        -1.8710    1.7750    0.2300 ho        1 MOL      0.406999
@<TRIPOS>BOND
     1    1    2 1   
     2    1    4 1   
     3    1    5 1   
     4    1    6 1   
     5    2    3 2   
     6    2    7 1   
     7    7    8 1   
     8    7   15 1   
     9    8    9 1   
    10    8   11 1   
    11    8   16 1   
    12    9   10 2   
    13    9   19 1   
    14   11   12 1   
    15   11   17 1   
    16   11   18 1   
    17   12   13 1   
    18   12   14 1   
    19   19   20 1   
    20   19   24 1   
    21   20   21 1   
    22   20   23 1   
    23   20   25 1   
    24   21   22 2   
    25   21   29 1   
    26   23   26 1   
    27   23   27 1   
    28   23   28 1   
    29   29   30 1   
    30   29   37 1   
    31   30   31 1   
    32   30   33 1   
    33   30   38 1   
    34   31   32 2   
    35   31   41 1   
    36   33   34 1   
    37   33   39 1   
    38   33   40 1   
    39   34   35 1   
    40   34   36 1   
    41   41   42 1   
    42   41   45 1   
    43   42   43 1   
    44   42   46 1   
    45   42   47 1   
    46   43   44 2   
    47   43   48 1   
    48   48   49 1   
    49   48   56 1   
    50   49   50 1   
    51   49   52 1   
    52   49   57 1   
    53   50   51 2   
    54   50   62 1   
    55   52   53 1   
    56   52   58 1   
    57   52   59 1   
    58   53   54 1   
    59   53   55 2   
    60   54   60 1   
    61   54   61 1   
    62   62   63 1   
    63   62   66 1   
    64   63   64 1   
    65   63   67 1   
    66   63   68 1   
    67   64   65 2   
    68   64   69 1   
    69   69   70 1   
    70   69   76 1   
    71   70   71 1   
    72   70   73 1   
    73   70   77 1   
    74   71   72 2   
    75   71   83 1   
    76   73   74 1   
    77   73   75 1   
    78   73   78 1   
    79   74   80 1   
    80   74   81 1   
    81   74   82 1   
    82   75   79 1   
    83   83   84 1   
    84   83   91 1   
    85   84   85 1   
    86   84   87 1   
    87   84   92 1   
    88   85   86 2   
    89   85  102 1   
    90   87   88 1   
    91   87   89 1   
    92   87   93 1   
    93   88   90 1   
    94   88   94 1   
    95   88   95 1   
    96   89   96 1   
    97   89   97 1   
    98   89   98 1   
    99   90   99 1   
   100   90  100 1   
   101   90  101 1   
   102  102  103 1   
   103  102  110 1   
   104  103  104 1   
   105  103  106 1   
   106  103  111 1   
   107  104  105 2   
   108  104  114 1   
   109  106  107 1   
   110  106  112 1   
   111  106  113 1   
   112  107  108 1   
   113  107  109 1   
   114  114  115 1   
   115  114  125 1   
   116  115  116 1   
   117  115  118 1   
   118  115  126 1   
   119  116  117 2   
   120  116  134 1   
   121  118  119 1   
   122  118  127 1   
   123  118  128 1   
   124  119  120 ar  
   125  119  121 ar  
   126  120  122 ar  
   127  120  129 1   
   128  121  123 ar  
   129  121  130 1   
   130  122  124 ar  
   131  122  131 1   
   132  123  124 ar  
   133  123  132 1   
   134  124  133 1   
   135  134  135 1   
   136  134  140 1   
   137  135  136 1   
   138  135  138 1   
   139  135  141 1   
   140  136  137 2   
   141  136  148 1   
   142  138  139 1   
   143  138  142 1   
   144  138  143 1   
   145  139  140 1   
   146  139  144 1   
   147  139  145 1   
   148  140  146 1   
   149  140  147 1   
   150  148  149 1   
   151  148  157 1   
   152  149  150 1   
   153  149  152 1   
   154  149  158 1   
   155  150  151 2   
   156  150  163 1   
   157  152  153 1   
   158  152  159 1   
   159  152  160 1   
   160  153  154 1   
   161  153  161 1   
   162  153  162 1   
   163  154  155 1   
   164  154  156 1   
   165  163  164 1   
   166  163  168 1   
   167  164  165 1   
   168  164  166 1   
   169  164  167 1   
   170  170  171 1   
   171  170  172 1   
   172  173  174 1   
   173  173  175 1   
   174  176  177 1   
   175  176  178 1   
@<TRIPOS>SUBSTRUCTURE
     1 MOL         1 TEMP              0 ****  ****    0 ROOT
