@<TRIPOS>MOLECULE
MOL
  195   189     1     0     0
SMALL
resp


@<TRIPOS>ATOM
      1 C1          3.6010    4.9680   -4.6140 c3        1 MOL     -0.377144
      2 C2          3.5200    3.7150   -3.6760 c         1 MOL      0.575697
      3 O1          2.9410    2.6610   -4.0380 o         1 MOL     -0.547351
      4 H1          3.7870    4.6430   -5.6380 hc        1 MOL      0.098961
      5 H2          2.6590    5.5150   -4.5730 hc        1 MOL      0.098961
      6 H3          4.4120    5.6160   -4.2870 hc        1 MOL      0.098961
      7 N1          4.0450    3.8950   -2.4480 n         1 MOL     -0.370879
      8 C3          4.0130    2.7270   -1.5230 c3        1 MOL      0.049020
      9 C4          2.5560    2.5640   -0.9400 c         1 MOL      0.691002
     10 O2          2.2840    1.4560   -0.4610 o         1 MOL     -0.585698
     11 C5          4.8910    3.0430   -0.3620 c3        1 MOL     -0.429567
     12 C6          4.7020    4.4350    0.1170 c         1 MOL      0.683576
     13 O3          5.3220    5.3340   -0.4310 o         1 MOL     -0.699911
     14 O4          4.0030    4.6340    1.1330 o         1 MOL     -0.699911
     15 H4          4.5290    4.7650   -2.2700 hn        1 MOL      0.261957
     16 H5          4.4390    1.7960   -1.9050 h1        1 MOL      0.074812
     17 H6          5.8890    2.9500   -0.7940 hc        1 MOL      0.121637
     18 H7          4.6530    2.3910    0.4750 hc        1 MOL      0.121637
     19 N2          1.5960    3.4410   -1.2090 n         1 MOL     -0.552173
     20 C7          0.1960    3.3100   -0.8040 c3        1 MOL      0.253969
     21 C8         -0.7470    2.6690   -1.8470 c         1 MOL      0.501491
     22 O5         -0.7240    3.0350   -3.0120 o         1 MOL     -0.591364
     23 C9         -0.3660    4.6400   -0.4550 c3        1 MOL     -0.069516
     24 C10        -1.8960    4.7490   -0.2190 c3        1 MOL      0.019836
     25 C11        -2.2070    6.2340   -0.1760 c3        1 MOL     -0.185113
     26 C12        -3.6890    6.4740    0.0970 c3        1 MOL      0.093368
     27 N3         -4.1260    7.8040   -0.2610 n4        1 MOL     -0.324329
     28 H8          1.8110    4.1510   -1.8950 hn        1 MOL      0.276413
     29 H9          0.2120    2.5770    0.0090 h1        1 MOL      0.048437
     30 H10        -0.2630    5.2620   -1.3450 hc        1 MOL      0.040174
     31 H11         0.2470    5.1700    0.2840 hc        1 MOL      0.040174
     32 H12        -2.3150    4.3430    0.7010 hc        1 MOL      0.039700
     33 H13        -2.4490    4.2850   -1.0420 hc        1 MOL      0.039700
     34 H14        -1.9200    6.7820   -1.0730 hc        1 MOL      0.055737
     35 H15        -1.6620    6.7630    0.6100 hc        1 MOL      0.055737
     36 H16        -3.9320    6.2630    1.1390 hx        1 MOL      0.108524
     37 H17        -4.1670    5.7980   -0.6220 hx        1 MOL      0.108524
     38 H18        -3.8800    8.5140    0.4230 hn        1 MOL      0.310749
     39 H19        -3.6440    8.1150   -1.0930 hn        1 MOL      0.310749
     40 H20        -5.1270    7.8650   -0.3810 hn        1 MOL      0.310749
     41 N4         -1.6940    1.7530   -1.6590 n         1 MOL     -0.281182
     42 C13        -1.8500    0.8400   -0.5480 c3        1 MOL     -0.054052
     43 C14        -2.2790    1.5760    0.7390 c         1 MOL      0.066112
     44 O6         -1.3770    1.7800    1.5650 o         1 MOL     -0.440228
     45 C15        -0.7050   -0.1830   -0.3760 c3        1 MOL     -0.449929
     46 C16        -0.2680   -1.0490   -1.5030 c         1 MOL      0.975844
     47 O7         -0.6020   -0.8620   -2.6970 o         1 MOL     -0.860811
     48 O8          0.5250   -1.9560   -1.3420 o         1 MOL     -0.860811
     49 H21        -2.2950    1.6220   -2.4600 hn        1 MOL      0.255950
     50 H22        -2.6660    0.2070   -0.9270 h1        1 MOL      0.097868
     51 H23        -0.8790   -0.6730    0.5790 hc        1 MOL      0.200748
     52 H24         0.1470    0.4070   -0.0430 hc        1 MOL      0.200748
     53 N5         -3.5590    2.0350    0.9150 n         1 MOL     -0.105651
     54 C17        -4.6180    2.0580   -0.1550 c3        1 MOL     -0.220004
     55 C18        -5.7870    3.0190    0.2180 c         1 MOL      0.572222
     56 O9         -5.6730    3.9920    0.9880 o         1 MOL     -0.614739
     57 H25        -3.7120    2.6500    1.7040 hn        1 MOL      0.248342
     58 H26        -5.0960    1.0800   -0.1620 h1        1 MOL      0.089402
     59 H27        -4.2300    2.3630   -1.1240 h1        1 MOL      0.089402
     60 N6         -6.9740    2.7730   -0.3370 n         1 MOL     -0.468167
     61 C19        -7.2810    1.6660   -1.2990 c3        1 MOL      0.072690
     62 C20        -7.5540    0.2280   -0.7110 c         1 MOL      0.564525
     63 O10        -7.7420    0.0140    0.4990 o         1 MOL     -0.460382
     64 C21        -8.4550    2.0990   -2.1690 c3        1 MOL     -0.269211
     65 C22        -9.7210    2.6050   -1.4860 c         1 MOL      0.774585
     66 O11       -10.8220    2.0240   -1.5710 o         1 MOL     -0.707376
     67 O12        -9.5910    3.6340   -0.8390 o         1 MOL     -0.707376
     68 H28        -7.7500    3.3380   -0.0230 hn        1 MOL      0.318302
     69 H29        -6.4620    1.6080   -2.0270 h1        1 MOL      0.033170
     70 H30        -8.7540    1.2860   -2.8290 hc        1 MOL      0.035371
     71 H31        -8.1250    2.8470   -2.8880 hc        1 MOL      0.035371
     72 N7         -7.5240   -0.8230   -1.5630 n         1 MOL     -0.385264
     73 C23        -8.0190   -2.1970   -1.2580 c3        1 MOL     -0.253965
     74 C24        -7.1020   -3.2760   -0.7230 c         1 MOL      0.510349
     75 O13        -7.5200   -4.3780   -0.4020 o         1 MOL     -0.536261
     76 H32        -7.2300   -0.6460   -2.5170 hn        1 MOL      0.266662
     77 H33        -8.4560   -2.5240   -2.1980 h1        1 MOL      0.158336
     78 H34        -8.8390   -2.2220   -0.5400 h1        1 MOL      0.158336
     79 N8         -5.8220   -2.8930   -0.6560 n         1 MOL     -0.331522
     80 C25        -4.7130   -3.3950    0.1190 c3        1 MOL      0.073204
     81 C26        -4.3180   -2.2080    1.0090 c         1 MOL      0.454267
     82 O14        -4.3250   -1.0640    0.5470 o         1 MOL     -0.444415
     83 C27        -3.4940   -3.8200   -0.7580 c3        1 MOL      0.316406
     84 C28        -3.7220   -4.9530   -1.7430 c3        1 MOL     -0.130373
     85 O15        -2.5010   -4.2580    0.0570 oh        1 MOL     -0.592203
     86 H35        -5.6160   -1.9350   -0.9180 hn        1 MOL      0.115285
     87 H36        -4.9480   -4.2110    0.7920 h1        1 MOL      0.074210
     88 H37        -3.1800   -2.9680   -1.3620 h1        1 MOL     -0.028772
     89 H38        -1.7410   -4.4900   -0.4870 ho        1 MOL      0.403560
     90 H39        -2.7690   -5.1610   -2.2360 hc        1 MOL      0.024988
     91 H40        -4.0970   -5.8320   -1.2180 hc        1 MOL      0.024988
     92 H41        -4.3560   -4.6690   -2.5920 hc        1 MOL      0.024988
     93 N9         -3.8200   -2.4690    2.2190 n         1 MOL     -0.212145
     94 C29        -3.2760   -1.3840    3.0720 c3        1 MOL      0.055266
     95 C30        -1.9950   -1.8890    3.8530 c         1 MOL      0.445669
     96 O16        -1.8500   -1.6440    5.0060 o         1 MOL     -0.491214
     97 C31        -4.3050   -0.7770    4.0440 c3        1 MOL     -0.004177
     98 C32        -5.8150   -0.7820    3.5510 c3        1 MOL      0.085707
     99 C33        -3.9500    0.7080    4.3740 c3        1 MOL     -0.388650
    100 C34        -6.4900   -2.1330    3.8560 c3        1 MOL     -0.306940
    101 H42        -3.9410   -3.3760    2.6490 hn        1 MOL      0.232329
    102 H43        -3.0120   -0.5870    2.3860 h1        1 MOL      0.117726
    103 H44        -4.2950   -1.3520    4.9790 hc        1 MOL      0.045665
    104 H45        -5.8770   -0.5090    2.5030 hc        1 MOL      0.026203
    105 H46        -6.3020    0.0510    4.0710 hc        1 MOL      0.026203
    106 H47        -4.1720    1.3230    3.5020 hc        1 MOL      0.100526
    107 H48        -4.5520    1.1790    5.1560 hc        1 MOL      0.100526
    108 H49        -2.8810    0.8550    4.4910 hc        1 MOL      0.100526
    109 H50        -7.4360   -1.9240    3.3480 hc        1 MOL      0.069942
    110 H51        -5.9820   -3.0470    3.5460 hc        1 MOL      0.069942
    111 H52        -6.6620   -2.2310    4.9280 hc        1 MOL      0.069942
    112 N10        -1.1610   -2.6830    3.1460 n         1 MOL     -0.158543
    113 C35         0.1050   -3.3230    3.6100 c3        1 MOL     -0.047843
    114 C36         1.3150   -2.4230    3.7250 c         1 MOL      0.448090
    115 O17         2.0420   -2.5520    4.6910 o         1 MOL     -0.518322
    116 C37         0.4880   -4.5120    2.7580 c3        1 MOL      0.012404
    117 C38         0.7160   -4.1960    1.2960 c3        1 MOL     -0.158881
    118 O18        -0.5440   -5.5530    2.6750 oh        1 MOL     -0.603417
    119 H53        -1.3240   -2.8380    2.1610 hn        1 MOL     -0.007809
    120 H54        -0.0320   -3.7100    4.6200 h1        1 MOL      0.099672
    121 H55         1.3820   -4.8810    3.2410 h1        1 MOL      0.106380
    122 H56        -0.4940   -6.0050    3.5200 ho        1 MOL      0.406304
    123 H57         1.6580   -3.6550    1.1880 hc        1 MOL      0.112652
    124 H58         0.8260   -5.1380    0.7540 hc        1 MOL      0.112652
    125 H59        -0.0940   -3.5590    0.9440 hc        1 MOL      0.112652
    126 N11         1.4750   -1.4700    2.8440 n         1 MOL     -0.205652
    127 C39         2.5240   -0.4380    2.8490 c3        1 MOL      0.178349
    128 C40         4.0300   -0.8380    2.7260 c         1 MOL      0.510549
    129 O19         4.3930   -1.8920    3.3140 o         1 MOL     -0.486059
    130 C41         2.2910    0.6190    3.9760 c3        1 MOL      0.328684
    131 C42         0.8010    1.0440    4.2740 c3        1 MOL     -0.354970
    132 O20         3.1560    1.7120    3.9610 oh        1 MOL     -0.648883
    133 H60         0.7590   -1.3680    2.1310 hn        1 MOL      0.112826
    134 H61         2.3050    0.0880    1.9180 h1        1 MOL      0.000323
    135 H62         2.5480    0.0070    4.8390 h1        1 MOL     -0.044034
    136 H63         2.9720    2.2060    4.7680 ho        1 MOL      0.405228
    137 H64         0.3040    1.2370    3.3230 hc        1 MOL      0.095328
    138 H65         0.2630    0.2390    4.7830 hc        1 MOL      0.095328
    139 H66         0.7800    1.9690    4.8570 hc        1 MOL      0.095328
    140 N12         4.7990   -0.0510    1.9140 n         1 MOL     -0.708060
    141 C43         6.2760   -0.1280    1.8830 c3        1 MOL      0.130528
    142 C44         6.7320   -0.9530    0.6640 c         1 MOL      0.499765
    143 O21         7.8900   -1.3740    0.6330 o         1 MOL     -0.596647
    144 C45         6.8530    1.3220    1.8640 c3        1 MOL      0.261718
    145 C46         8.3260    1.4930    2.1000 c3        1 MOL     -0.019525
    146 C47         8.7000    1.1110    3.5540 c3        1 MOL     -0.237230
    147 C48         7.8430    1.7690    4.7170 c3        1 MOL     -0.013504
    148 N13         7.9500    3.2620    4.7440 n4        1 MOL     -0.361687
    149 H67         4.3860    0.8280    1.6520 hn        1 MOL      0.375245
    150 H68         6.6640   -0.7230    2.7020 h1        1 MOL      0.076158
    151 H69         6.2610    1.9220    2.5420 hc        1 MOL     -0.053567
    152 H70         6.6750    1.7540    0.8780 hc        1 MOL     -0.053567
    153 H71         8.5510    2.5450    1.9310 hc        1 MOL      0.035508
    154 H72         8.9600    0.9530    1.3900 hc        1 MOL      0.035508
    155 H73         9.6950    1.4280    3.8670 hc        1 MOL      0.098407
    156 H74         8.6040    0.0370    3.7050 hc        1 MOL      0.098407
    157 H75         8.3160    1.4070    5.6280 hx        1 MOL      0.104949
    158 H76         6.7990    1.5370    4.5460 hx        1 MOL      0.104949
    159 H77         8.8320    3.6030    5.0880 hn        1 MOL      0.329932
    160 H78         7.7850    3.6850    3.8380 hn        1 MOL      0.329932
    161 H79         7.2210    3.5980    5.3650 hn        1 MOL      0.329932
    162 N14         5.9290   -1.3600   -0.3180 n         1 MOL     -0.228366
    163 C49         6.3390   -2.0140   -1.5860 c3        1 MOL     -0.211698
    164 C50         7.0240   -0.9970   -2.5100 c         1 MOL      0.465177
    165 O22         6.4950    0.1100   -2.7260 o         1 MOL     -0.468656
    166 C51         5.1310   -2.7500   -2.2310 c3        1 MOL     -0.048770
    167 C52         4.5970   -4.0480   -1.5480 c3        1 MOL      0.190253
    168 C53         3.6020   -4.7400   -2.4740 c         1 MOL      0.471265
    169 O23         3.6930   -6.0030   -2.7510 o         1 MOL     -0.671764
    170 O24         2.5930   -4.0920   -2.9100 o         1 MOL     -0.671764
    171 H80         4.9440   -1.1250   -0.2840 hn        1 MOL      0.252579
    172 H81         6.9290   -2.8850   -1.3130 h1        1 MOL      0.120251
    173 H82         5.3210   -2.9310   -3.2880 hc        1 MOL      0.034371
    174 H83         4.2780   -2.0760   -2.1930 hc        1 MOL      0.034371
    175 H84         4.1560   -3.7630   -0.5990 hc        1 MOL     -0.044679
    176 H85         5.4820   -4.6280   -1.2800 hc        1 MOL     -0.044679
    177 N15         8.2460   -1.3950   -2.9560 n         1 MOL     -0.274304
    178 C54         9.1330   -0.5850   -3.6760 c3        1 MOL     -0.044540
    179 H86         9.1620   -0.9130   -4.7150 h1        1 MOL      0.055059
    180 H87         8.7960    0.4510   -3.6330 h1        1 MOL      0.055059
    181 H88        10.1300   -0.6610   -3.2430 h1        1 MOL      0.055059
    182 H89         8.3780   -2.4000   -2.9120 hn        1 MOL      0.253665
    183 Ca1         0.6080   -2.8910   -3.9780 Ca        1 MOL      1.776502
    184 O25        -2.1610   -2.7520   -4.1670 oh        1 MOL     -0.904601
    185 H90        -2.3050   -1.8360   -3.9480 ho        1 MOL      0.445581
    186 H91        -3.0240   -3.1010   -4.3460 ho        1 MOL      0.445581
    187 O26         2.5690   -2.5130   -5.8390 oh        1 MOL     -0.904601
    188 H92         2.8580   -2.7230   -6.7250 ho        1 MOL      0.445581
    189 H93         3.2510   -1.9270   -5.4960 ho        1 MOL      0.445581
    190 O27        -0.1630   -5.1340   -2.6040 oh        1 MOL     -0.904601
    191 H94        -0.5820   -5.7040   -3.2480 ho        1 MOL      0.445581
    192 H95         0.4750   -5.6950   -2.1680 ho        1 MOL      0.445581
    193 O28         1.8370   -0.2170   -3.9400 oh        1 MOL     -0.904601
    194 H96         1.0840    0.2520   -4.3010 ho        1 MOL      0.445581
    195 H97         2.0470    0.2540   -3.1290 ho        1 MOL      0.445581
@<TRIPOS>BOND
     1    1    2 1   
     2    1    4 1   
     3    1    5 1   
     4    1    6 1   
     5    2    3 2   
     6    2    7 1   
     7    7    8 1   
     8    7   15 1   
     9    8    9 1   
    10    8   11 1   
    11    8   16 1   
    12    9   10 2   
    13    9   19 1   
    14   11   12 1   
    15   11   17 1   
    16   11   18 1   
    17   12   13 1   
    18   12   14 1   
    19   19   20 1   
    20   19   28 1   
    21   20   21 1   
    22   20   23 1   
    23   20   29 1   
    24   21   22 2   
    25   21   41 1   
    26   23   24 1   
    27   23   30 1   
    28   23   31 1   
    29   24   25 1   
    30   24   32 1   
    31   24   33 1   
    32   25   26 1   
    33   25   34 1   
    34   25   35 1   
    35   26   27 1   
    36   26   36 1   
    37   26   37 1   
    38   27   38 1   
    39   27   39 1   
    40   27   40 1   
    41   41   42 1   
    42   41   49 1   
    43   42   43 1   
    44   42   45 1   
    45   42   50 1   
    46   43   44 2   
    47   43   53 1   
    48   45   46 1   
    49   45   51 1   
    50   45   52 1   
    51   46   47 1   
    52   46   48 1   
    53   53   54 1   
    54   53   57 1   
    55   54   55 1   
    56   54   58 1   
    57   54   59 1   
    58   55   56 2   
    59   55   60 1   
    60   60   61 1   
    61   60   68 1   
    62   61   62 1   
    63   61   64 1   
    64   61   69 1   
    65   62   63 2   
    66   62   72 1   
    67   64   65 1   
    68   64   70 1   
    69   64   71 1   
    70   65   66 1   
    71   65   67 1   
    72   72   73 1   
    73   72   76 1   
    74   73   74 1   
    75   73   77 1   
    76   73   78 1   
    77   74   75 2   
    78   74   79 1   
    79   79   80 1   
    80   79   86 1   
    81   80   81 1   
    82   80   83 1   
    83   80   87 1   
    84   81   82 2   
    85   81   93 1   
    86   83   84 1   
    87   83   85 1   
    88   83   88 1   
    89   84   90 1   
    90   84   91 1   
    91   84   92 1   
    92   85   89 1   
    93   93   94 1   
    94   93  101 1   
    95   94   95 1   
    96   94   97 1   
    97   94  102 1   
    98   95   96 2   
    99   95  112 1   
   100   97   98 1   
   101   97   99 1   
   102   97  103 1   
   103   98  100 1   
   104   98  104 1   
   105   98  105 1   
   106   99  106 1   
   107   99  107 1   
   108   99  108 1   
   109  100  109 1   
   110  100  110 1   
   111  100  111 1   
   112  112  113 1   
   113  112  119 1   
   114  113  114 1   
   115  113  116 1   
   116  113  120 1   
   117  114  115 2   
   118  114  126 1   
   119  116  117 1   
   120  116  118 1   
   121  116  121 1   
   122  117  123 1   
   123  117  124 1   
   124  117  125 1   
   125  118  122 1   
   126  126  127 1   
   127  126  133 1   
   128  127  128 1   
   129  127  130 1   
   130  127  134 1   
   131  128  129 2   
   132  128  140 1   
   133  130  131 1   
   134  130  132 1   
   135  130  135 1   
   136  131  137 1   
   137  131  138 1   
   138  131  139 1   
   139  132  136 1   
   140  140  141 1   
   141  140  149 1   
   142  141  142 1   
   143  141  144 1   
   144  141  150 1   
   145  142  143 2   
   146  142  162 1   
   147  144  145 1   
   148  144  151 1   
   149  144  152 1   
   150  145  146 1   
   151  145  153 1   
   152  145  154 1   
   153  146  147 1   
   154  146  155 1   
   155  146  156 1   
   156  147  148 1   
   157  147  157 1   
   158  147  158 1   
   159  148  159 1   
   160  148  160 1   
   161  148  161 1   
   162  162  163 1   
   163  162  171 1   
   164  163  164 1   
   165  163  166 1   
   166  163  172 1   
   167  164  165 2   
   168  164  177 1   
   169  166  167 1   
   170  166  173 1   
   171  166  174 1   
   172  167  168 1   
   173  167  175 1   
   174  167  176 1   
   175  168  169 1   
   176  168  170 1   
   177  177  178 1   
   178  177  182 1   
   179  178  179 1   
   180  178  180 1   
   181  178  181 1   
   182  184  185 1   
   183  184  186 1   
   184  187  188 1   
   185  187  189 1   
   186  190  191 1   
   187  190  192 1   
   188  193  194 1   
   189  193  195 1   
@<TRIPOS>SUBSTRUCTURE
     1 MOL         1 TEMP              0 ****  ****    0 ROOT
