@<TRIPOS>MOLECULE
MOL
  182   178     1     0     0
SMALL
resp


@<TRIPOS>ATOM
      1 C1          0.0160   -4.1020    5.9180 c3        1 MOL     -0.292721
      2 C2          0.0140   -3.7320    4.4100 c         1 MOL      0.728967
      3 O1         -0.9650   -3.1930    3.7940 o         1 MOL     -0.634815
      4 H1         -0.6750   -3.4500    6.4520 hc        1 MOL      0.078825
      5 H2         -0.2970   -5.1400    6.0380 hc        1 MOL      0.078825
      6 H3          1.0210   -3.9750    6.3220 hc        1 MOL      0.078825
      7 N1          1.2530   -3.8250    3.8820 n         1 MOL     -0.541236
      8 C3          1.5810   -3.4370    2.4920 c3        1 MOL     -0.154974
      9 C4          1.1840   -4.6220    1.6100 c         1 MOL      0.647100
     10 O2          1.5310   -5.7650    1.9460 o         1 MOL     -0.577594
     11 C5          3.0590   -2.9610    2.3750 c3        1 MOL      0.021897
     12 C6          3.0970   -1.9320    1.1860 c         1 MOL      0.396285
     13 O3          3.9170   -0.9720    1.2410 o         1 MOL     -0.600993
     14 O4          2.3500   -2.1600    0.1790 o         1 MOL     -0.600993
     15 H4          2.0440   -4.1530    4.4260 hn        1 MOL      0.337097
     16 H5          0.8780   -2.6460    2.2250 h1        1 MOL      0.021487
     17 H6          3.8210   -3.7130    2.1890 hc        1 MOL      0.037956
     18 H7          3.3040   -2.3440    3.2340 hc        1 MOL      0.037956
     19 N2          0.5560   -4.3650    0.5100 n         1 MOL     -0.433315
     20 C7          0.3430   -5.3670   -0.5800 c3        1 MOL     -0.074721
     21 C8          1.6020   -5.4290   -1.5430 c         1 MOL      0.597245
     22 O5          1.6970   -6.4590   -2.1900 o         1 MOL     -0.576081
     23 C9         -0.8420   -4.9210   -1.4350 c3        1 MOL      0.082178
     24 C10        -2.1080   -4.9860   -0.5520 c3        1 MOL     -0.347658
     25 C11        -3.3400   -4.7750   -1.3340 c3        1 MOL      0.373938
     26 C12        -4.6230   -5.3470   -0.8320 c3        1 MOL     -0.306676
     27 N3         -4.7880   -4.9550    0.5750 n4        1 MOL     -0.074507
     28 H8          0.3050   -3.3870    0.3790 hn        1 MOL      0.301836
     29 H9          0.1180   -6.3830   -0.2750 h1        1 MOL      0.110880
     30 H10        -1.0670   -5.5980   -2.2630 hc        1 MOL      0.037147
     31 H11        -0.7200   -3.9080   -1.8130 hc        1 MOL      0.037147
     32 H12        -2.0950   -4.4040    0.3730 hc        1 MOL      0.098919
     33 H13        -2.1680   -5.9940   -0.1560 hc        1 MOL      0.098919
     34 H14        -3.1710   -5.0470   -2.3770 hc        1 MOL     -0.068388
     35 H15        -3.5320   -3.7050   -1.2750 hc        1 MOL     -0.068388
     36 H16        -4.5120   -6.4220   -0.9940 hx        1 MOL      0.156501
     37 H17        -5.4620   -4.8820   -1.3470 hx        1 MOL      0.156501
     38 H18        -3.9300   -5.1380    1.0860 hn        1 MOL      0.220516
     39 H19        -5.0050   -4.0090    0.8550 hn        1 MOL      0.220516
     40 H20        -5.6100   -5.3840    0.9660 hn        1 MOL      0.220516
     41 N4          2.4200   -4.3920   -1.6570 n         1 MOL     -0.552711
     42 C13         3.5790   -4.5070   -2.5750 c3        1 MOL      0.291935
     43 C14         4.9120   -4.3330   -1.8690 c         1 MOL      0.265015
     44 O6          5.9780   -4.6260   -2.4230 o         1 MOL     -0.511851
     45 C15         3.4710   -3.4270   -3.6910 c3        1 MOL     -0.607027
     46 C16         3.2740   -2.0040   -3.1570 c         1 MOL      0.948543
     47 O7          2.1800   -1.4370   -3.2610 o         1 MOL     -0.816094
     48 O8          4.1290   -1.4910   -2.4060 o         1 MOL     -0.816094
     49 H21         2.1420   -3.5950   -1.0910 hn        1 MOL      0.373231
     50 H22         3.6900   -5.4010   -3.1960 h1        1 MOL      0.106006
     51 H23         2.7040   -3.7390   -4.3950 hc        1 MOL      0.167176
     52 H24         4.3770   -3.4720   -4.3030 hc        1 MOL      0.167176
     53 N5          4.9830   -3.7850   -0.6350 n         1 MOL     -0.034127
     54 C17         6.1960   -3.7880    0.1590 c3        1 MOL     -0.176251
     55 C18         7.0440   -2.5090    0.1470 c         1 MOL      0.614988
     56 O9          8.0330   -2.5350    0.9000 o         1 MOL     -0.588302
     57 H25         4.1910   -3.4570   -0.0910 hn        1 MOL      0.072952
     58 H26         6.9040   -4.5590   -0.1650 h1        1 MOL      0.105625
     59 H27         5.9690   -3.9290    1.2190 h1        1 MOL      0.105625
     60 N6          6.6960   -1.5190   -0.6590 n         1 MOL     -0.489086
     61 C19         7.5230   -0.2910   -0.8060 c3        1 MOL      0.392210
     62 C20         6.5800    0.9250   -0.6680 c         1 MOL      0.323613
     63 O10         5.3710    0.8220   -0.8770 o         1 MOL     -0.450828
     64 C21         8.2460   -0.2530   -2.1220 c3        1 MOL     -0.353487
     65 C22         9.4240    0.7460   -2.1520 c         1 MOL      0.671893
     66 N7         10.4260    0.4700   -2.9590 n         1 MOL     -0.780339
     67 O11         9.5060    1.7220   -1.4790 o         1 MOL     -0.537189
     68 H28         5.9580   -1.7020   -1.3330 hn        1 MOL      0.323567
     69 H29         8.2260   -0.2010    0.0270 h1        1 MOL      0.008036
     70 H30         7.5330    0.0770   -2.8770 hc        1 MOL      0.091319
     71 H31         8.5080   -1.2670   -2.4200 hc        1 MOL      0.091319
     72 H32        10.2890   -0.2230   -3.6880 hn        1 MOL      0.365657
     73 H33        11.2560    1.0350   -2.9370 hn        1 MOL      0.365657
     74 N8          7.0460    2.1280   -0.3800 n         1 MOL     -0.302314
     75 C23         6.3540    3.4270   -0.4560 c3        1 MOL     -0.102222
     76 C24         5.2910    3.6850    0.5990 c         1 MOL      0.617371
     77 O12         5.5000    3.2880    1.7420 o         1 MOL     -0.498886
     78 H34         8.0290    2.1490   -0.1540 hn        1 MOL      0.276717
     79 H35         5.8600    3.4730   -1.4280 h1        1 MOL      0.059717
     80 H36         7.1580    4.1590   -0.4020 h1        1 MOL      0.059717
     81 N9          4.1990    4.2650    0.1260 n         1 MOL     -0.660362
     82 C25         2.9700    4.4350    0.9460 c3        1 MOL      0.428983
     83 C26         2.4910    3.0480    1.2950 c         1 MOL      0.320585
     84 O13         2.8180    2.0790    0.6580 o         1 MOL     -0.448734
     85 C27         2.0430    5.3200    0.1860 c3        1 MOL     -0.070853
     86 C28         2.6030    6.6640   -0.2770 ca        1 MOL      0.048846
     87 C29         2.5750    7.1910   -1.6140 ca        1 MOL     -0.173724
     88 C30         2.9810    7.5900    0.7810 ca        1 MOL     -0.173724
     89 C31         2.9420    8.5270   -1.8670 ca        1 MOL     -0.212566
     90 C32         3.4270    8.8870    0.4640 ca        1 MOL     -0.212566
     91 C33         3.4330    9.3130   -0.8500 ca        1 MOL      0.297474
     92 O14         3.7840   10.6360   -1.1230 oh        1 MOL     -0.455685
     93 H37         4.2040    4.5210   -0.8570 hn        1 MOL      0.281842
     94 H38         3.3590    4.9710    1.8130 h1        1 MOL      0.033965
     95 H39         1.1780    5.5510    0.8130 hc        1 MOL      0.007281
     96 H40         1.8150    4.8450   -0.7630 hc        1 MOL      0.007281
     97 H41         2.1360    6.5450   -2.3610 ha        1 MOL      0.124225
     98 H42         2.9960    7.1530    1.7650 ha        1 MOL      0.124225
     99 H43         2.9350    8.9140   -2.8780 ha        1 MOL      0.157869
    100 H44         3.7570    9.5690    1.2300 ha        1 MOL      0.157869
    101 H45         3.5030   10.8580   -2.0150 ho        1 MOL      0.341488
    102 N10         1.6590    2.9160    2.3010 n         1 MOL     -0.613517
    103 C34         1.0600    1.7900    3.0330 c3        1 MOL      0.217173
    104 C35         0.2460    0.9590    2.0420 c         1 MOL      0.367827
    105 O15         0.8350    0.2550    1.2350 o         1 MOL     -0.236562
    106 C36         2.1540    1.0590    3.8530 c3        1 MOL      0.180035
    107 C37         1.4260   -0.0340    4.6850 c3        1 MOL     -0.002635
    108 C38         3.0810    1.9740    4.6440 c3        1 MOL     -0.309936
    109 C39         0.5530    0.5870    5.8060 c3        1 MOL     -0.286548
    110 H46         1.3280    3.7860    2.7050 hn        1 MOL      0.290726
    111 H47         0.3060    2.2500    3.6700 h1        1 MOL      0.034363
    112 H48         2.8060    0.5960    3.1100 hc        1 MOL      0.056575
    113 H49         2.1120   -0.7840    5.0960 hc        1 MOL      0.046800
    114 H50         0.7180   -0.5490    4.0460 hc        1 MOL      0.046800
    115 H51         3.6350    1.2550    5.2510 hc        1 MOL      0.078599
    116 H52         3.7390    2.4380    3.9210 hc        1 MOL      0.078599
    117 H53         2.5340    2.7560    5.1730 hc        1 MOL      0.078599
    118 H54        -0.3610    0.9600    5.3610 hc        1 MOL      0.067873
    119 H55         0.2830   -0.1740    6.5360 hc        1 MOL      0.067873
    120 H56         1.1440    1.3560    6.2960 hc        1 MOL      0.067873
    121 N11        -1.0440    0.9510    2.1420 n         1 MOL     -0.415827
    122 C40        -1.8810    0.2790    1.1240 c3        1 MOL      0.041689
    123 C41        -3.3280    0.7350    0.9790 c         1 MOL      0.435990
    124 O16        -3.9820    1.2550    1.9360 o         1 MOL     -0.490626
    125 C42        -1.9250   -1.2000    1.4470 c3        1 MOL      0.171732
    126 O17        -0.9090   -1.8610    0.6990 oh        1 MOL     -0.328377
    127 H57        -1.4980    1.4510    2.8980 hn        1 MOL      0.275530
    128 H58        -1.4870    0.3930    0.1130 h1        1 MOL      0.110315
    129 H59        -2.8410   -1.6530    1.0800 h1        1 MOL      0.039294
    130 H60        -1.8810   -1.3310    2.5260 h1        1 MOL      0.039294
    131 H61        -0.1740   -1.2800    0.4950 ho        1 MOL     -0.024832
    132 N12        -3.8690    0.3810   -0.1880 n         1 MOL     -0.571841
    133 C43        -5.3370    0.3220   -0.4300 c3        1 MOL      0.470509
    134 C44        -5.6680   -0.7710   -1.4030 c         1 MOL      0.453319
    135 O18        -4.8820   -1.3780   -2.1200 o         1 MOL     -0.517655
    136 C45        -5.7700    1.7790   -0.8340 c3        1 MOL     -0.526119
    137 H62        -3.3420   -0.0580   -0.9320 hn        1 MOL      0.279196
    138 H63        -5.7720    0.1180    0.5500 h1        1 MOL     -0.008255
    139 H64        -6.8320    1.8670   -0.6090 hc        1 MOL      0.149436
    140 H65        -5.1990    2.4780   -0.2330 hc        1 MOL      0.149436
    141 H66        -5.5990    1.8070   -1.9100 hc        1 MOL      0.149436
    142 N13        -6.9910   -1.0330   -1.6430 n         1 MOL     -0.605406
    143 C46        -8.2270   -0.5250   -1.0670 c3        1 MOL      0.179531
    144 C47        -8.8130    0.6050   -1.9400 c         1 MOL      0.707075
    145 O19        -8.4900    0.7220   -3.1390 o         1 MOL     -0.586943
    146 C48        -9.1470   -1.7600   -0.8450 c3        1 MOL     -0.412101
    147 H67        -7.1090   -1.6850   -2.4030 hn        1 MOL      0.354323
    148 H68        -8.0370   -0.1550   -0.0610 h1        1 MOL      0.053733
    149 H69       -10.0560   -1.4590   -0.3270 hc        1 MOL      0.121950
    150 H70        -9.4560   -2.1890   -1.8060 hc        1 MOL      0.121950
    151 H71        -8.5560   -2.5190   -0.3280 hc        1 MOL      0.121950
    152 N14        -9.6970    1.4490   -1.4800 n         1 MOL     -0.786347
    153 C49       -10.3650    1.4070   -0.1660 c3        1 MOL      0.109781
    154 C50        -9.7740    2.5160    0.7920 c         1 MOL      0.459051
    155 O20        -9.7120    2.2080    1.9860 o         1 MOL     -0.555155
    156 C51       -11.8550    1.6590   -0.4160 c3        1 MOL      0.110223
    157 C52       -12.4310    0.5940   -1.3210 c3        1 MOL     -0.318881
    158 C53       -13.9570    0.7830   -1.3160 c         1 MOL      0.728426
    159 O21       -14.6310    0.6480   -0.2490 o         1 MOL     -0.674858
    160 O22       -14.4910    0.8890   -2.4040 o         1 MOL     -0.674858
    161 H72        -9.9710    2.1570   -2.1440 hn        1 MOL      0.391589
    162 H73       -10.2110    0.4730    0.3700 h1        1 MOL      0.058987
    163 H74       -12.0940    2.6970   -0.6460 hc        1 MOL     -0.001125
    164 H75       -12.3110    1.6040    0.5710 hc        1 MOL     -0.001125
    165 H76       -12.2030   -0.3920   -0.9190 hc        1 MOL      0.086236
    166 H77       -11.9620    0.6420   -2.3050 hc        1 MOL      0.086236
    167 N15        -9.2630    3.6310    0.3880 n         1 MOL     -0.257566
    168 C54        -8.5090    4.5160    1.3350 c3        1 MOL     -0.209417
    169 H78        -8.5540    4.0940    2.3390 h1        1 MOL      0.113351
    170 H79        -7.4690    4.5870    1.0170 h1        1 MOL      0.113351
    171 H80        -8.9570    5.5100    1.3390 h1        1 MOL      0.113351
    172 H81        -9.4420    3.9000   -0.5680 hn        1 MOL      0.232500
    173 Ca1         2.7640    0.1700   -1.0600 Ca        1 MOL      1.739746
    174 O23         0.1790   -0.7110   -1.6090 oh        1 MOL     -0.861353
    175 H82        -0.7090   -0.8470   -1.9480 ho        1 MOL      0.425908
    176 H83         0.7510   -1.0990   -2.2780 ho        1 MOL      0.425908
    177 O24         1.2370    2.2650   -1.7560 oh        1 MOL     -0.861353
    178 H84         0.3740    2.5370   -1.4450 ho        1 MOL      0.425908
    179 H85         1.4830    2.9350   -2.3990 ho        1 MOL      0.425908
    180 O25         3.6710    1.9150   -3.0620 oh        1 MOL     -0.861353
    181 H86         3.7380    2.8790   -3.0250 ho        1 MOL      0.425908
    182 H87         4.3540    1.6580   -3.6820 ho        1 MOL      0.425908
@<TRIPOS>BOND
     1    1    2 1   
     2    1    4 1   
     3    1    5 1   
     4    1    6 1   
     5    2    3 2   
     6    2    7 1   
     7    7    8 1   
     8    7   15 1   
     9    8    9 1   
    10    8   11 1   
    11    8   16 1   
    12    9   10 2   
    13    9   19 1   
    14   11   12 1   
    15   11   17 1   
    16   11   18 1   
    17   12   13 1   
    18   12   14 1   
    19   19   20 1   
    20   19   28 1   
    21   20   21 1   
    22   20   23 1   
    23   20   29 1   
    24   21   22 2   
    25   21   41 1   
    26   23   24 1   
    27   23   30 1   
    28   23   31 1   
    29   24   25 1   
    30   24   32 1   
    31   24   33 1   
    32   25   26 1   
    33   25   34 1   
    34   25   35 1   
    35   26   27 1   
    36   26   36 1   
    37   26   37 1   
    38   27   38 1   
    39   27   39 1   
    40   27   40 1   
    41   41   42 1   
    42   41   49 1   
    43   42   43 1   
    44   42   45 1   
    45   42   50 1   
    46   43   44 2   
    47   43   53 1   
    48   45   46 1   
    49   45   51 1   
    50   45   52 1   
    51   46   47 1   
    52   46   48 1   
    53   53   54 1   
    54   53   57 1   
    55   54   55 1   
    56   54   58 1   
    57   54   59 1   
    58   55   56 2   
    59   55   60 1   
    60   60   61 1   
    61   60   68 1   
    62   61   62 1   
    63   61   64 1   
    64   61   69 1   
    65   62   63 2   
    66   62   74 1   
    67   64   65 1   
    68   64   70 1   
    69   64   71 1   
    70   65   66 1   
    71   65   67 2   
    72   66   72 1   
    73   66   73 1   
    74   74   75 1   
    75   74   78 1   
    76   75   76 1   
    77   75   79 1   
    78   75   80 1   
    79   76   77 2   
    80   76   81 1   
    81   81   82 1   
    82   81   93 1   
    83   82   83 1   
    84   82   85 1   
    85   82   94 1   
    86   83   84 2   
    87   83  102 1   
    88   85   86 1   
    89   85   95 1   
    90   85   96 1   
    91   86   87 ar  
    92   86   88 ar  
    93   87   89 ar  
    94   87   97 1   
    95   88   90 ar  
    96   88   98 1   
    97   89   91 ar  
    98   89   99 1   
    99   90   91 ar  
   100   90  100 1   
   101   91   92 1   
   102   92  101 1   
   103  102  103 1   
   104  102  110 1   
   105  103  104 1   
   106  103  106 1   
   107  103  111 1   
   108  104  105 2   
   109  104  121 1   
   110  106  107 1   
   111  106  108 1   
   112  106  112 1   
   113  107  109 1   
   114  107  113 1   
   115  107  114 1   
   116  108  115 1   
   117  108  116 1   
   118  108  117 1   
   119  109  118 1   
   120  109  119 1   
   121  109  120 1   
   122  121  122 1   
   123  121  127 1   
   124  122  123 1   
   125  122  125 1   
   126  122  128 1   
   127  123  124 2   
   128  123  132 1   
   129  125  126 1   
   130  125  129 1   
   131  125  130 1   
   132  126  131 1   
   133  132  133 1   
   134  132  137 1   
   135  133  134 1   
   136  133  136 1   
   137  133  138 1   
   138  134  135 2   
   139  134  142 1   
   140  136  139 1   
   141  136  140 1   
   142  136  141 1   
   143  142  143 1   
   144  142  147 1   
   145  143  144 1   
   146  143  146 1   
   147  143  148 1   
   148  144  145 2   
   149  144  152 1   
   150  146  149 1   
   151  146  150 1   
   152  146  151 1   
   153  152  153 1   
   154  152  161 1   
   155  153  154 1   
   156  153  156 1   
   157  153  162 1   
   158  154  155 2   
   159  154  167 1   
   160  156  157 1   
   161  156  163 1   
   162  156  164 1   
   163  157  158 1   
   164  157  165 1   
   165  157  166 1   
   166  158  159 1   
   167  158  160 1   
   168  167  168 1   
   169  167  172 1   
   170  168  169 1   
   171  168  170 1   
   172  168  171 1   
   173  174  175 1   
   174  174  176 1   
   175  177  178 1   
   176  177  179 1   
   177  180  181 1   
   178  180  182 1   
@<TRIPOS>SUBSTRUCTURE
     1 MOL         1 TEMP              0 ****  ****    0 ROOT
