@<TRIPOS>MOLECULE
MOL
  198   191     1     0     0
SMALL
resp


@<TRIPOS>ATOM
      1 C1         -3.4510    1.0060    5.0640 c3        1 MOL     -0.248850
      2 C2         -4.6800    0.7340    4.2440 c         1 MOL      0.698700
      3 O1         -4.9820   -0.4170    3.9330 o         1 MOL     -0.633128
      4 H1         -3.6650    0.8100    6.1150 hc        1 MOL      0.058570
      5 H2         -2.6410    0.3580    4.7310 hc        1 MOL      0.058570
      6 H3         -3.1560    2.0490    4.9440 hc        1 MOL      0.058570
      7 N1         -5.4620    1.7840    3.8170 n         1 MOL     -0.293892
      8 C3         -6.6330    1.7790    2.9510 c3        1 MOL     -0.630974
      9 C4         -6.2380    1.4190    1.5170 c         1 MOL      0.810235
     10 O2         -5.2360    1.8660    0.9070 o         1 MOL     -0.666411
     11 C5         -7.3330    3.1210    3.1900 c3        1 MOL      0.208866
     12 C6         -6.4070    4.3740    2.9380 c         1 MOL      0.586998
     13 O3         -6.9160    5.4070    3.3410 o         1 MOL     -0.668725
     14 O4         -5.2090    4.2280    2.5130 o         1 MOL     -0.668725
     15 H4         -5.1810    2.7350    4.0210 hn        1 MOL      0.202206
     16 H5         -7.2930    1.0120    3.3470 h1        1 MOL      0.169223
     17 H6         -7.7990    3.2190    4.1760 hc        1 MOL      0.012886
     18 H7         -8.1070    3.1760    2.4270 hc        1 MOL      0.012886
     19 N2         -6.9860    0.5330    0.7980 n         1 MOL     -0.488880
     20 C7         -6.5210   -0.1930   -0.3600 c3        1 MOL      0.134440
     21 C8         -6.6250    0.5200   -1.6880 c         1 MOL      0.309622
     22 O5         -6.7520   -0.1010   -2.7440 o         1 MOL     -0.515032
     23 C9         -7.0820   -1.6640   -0.4170 c3        1 MOL     -0.167677
     24 C10        -6.9180   -2.3410    0.9160 c3        1 MOL      0.018605
     25 C11        -7.4010   -3.7660    0.8070 c3        1 MOL     -0.111300
     26 C12        -7.1590   -4.4600    2.1230 c3        1 MOL      0.041563
     27 N3         -7.4950   -5.8760    1.9630 n4        1 MOL     -0.444871
     28 H8         -7.7810    0.1160    1.2750 hn        1 MOL      0.282398
     29 H9         -5.4590   -0.3010   -0.1250 h1        1 MOL      0.151431
     30 H10        -6.4670   -2.2460   -1.1030 hc        1 MOL      0.066749
     31 H11        -8.1290   -1.6560   -0.7270 hc        1 MOL      0.066749
     32 H12        -7.4950   -1.7090    1.5910 hc        1 MOL      0.030451
     33 H13        -5.8540   -2.3060    1.1370 hc        1 MOL      0.030451
     34 H14        -6.8120   -4.2150    0.0150 hc        1 MOL      0.056697
     35 H15        -8.4350   -3.8220    0.5010 hc        1 MOL      0.056697
     36 H16        -7.5710   -3.9760    3.0090 hx        1 MOL      0.104595
     37 H17        -6.0880   -4.3210    2.3150 hx        1 MOL      0.104595
     38 H18        -6.8620   -6.4510    1.4280 hn        1 MOL      0.346288
     39 H19        -7.5680   -6.3920    2.8290 hn        1 MOL      0.346288
     40 H20        -8.3940   -5.9090    1.5090 hn        1 MOL      0.346288
     41 N4         -6.8100    1.8080   -1.5990 n         1 MOL     -0.275293
     42 C13        -6.9480    2.6450   -2.8250 c3        1 MOL      0.207094
     43 C14        -5.5540    3.1250   -3.2360 c         1 MOL      0.465659
     44 O6         -4.8590    3.7210   -2.4320 o         1 MOL     -0.564933
     45 C15        -7.8290    3.8940   -2.4430 c3        1 MOL     -0.425205
     46 C16        -7.6430    4.5320   -1.0670 c         1 MOL      0.669074
     47 O7         -6.7460    4.0940   -0.3240 o         1 MOL     -0.623966
     48 O8         -8.4140    5.4130   -0.6220 o         1 MOL     -0.623966
     49 H21        -6.7390    2.2590   -0.7050 hn        1 MOL      0.207740
     50 H22        -7.4070    2.0720   -3.6370 h1        1 MOL      0.085334
     51 H23        -8.8320    3.4860   -2.3520 hc        1 MOL      0.103696
     52 H24        -7.9820    4.5500   -3.3000 hc        1 MOL      0.103696
     53 N5         -5.0030    2.9050   -4.4720 n         1 MOL     -0.435361
     54 C17        -5.4190    1.9070   -5.4740 c3        1 MOL     -0.180816
     55 C18        -5.0030    0.4670   -5.2730 c         1 MOL      0.458255
     56 O9         -5.6500   -0.5010   -5.7710 o         1 MOL     -0.572503
     57 H25        -4.0470    3.2420   -4.5320 hn        1 MOL      0.314979
     58 H26        -5.0030    2.2290   -6.4270 h1        1 MOL      0.120119
     59 H27        -6.5010    2.0540   -5.3990 h1        1 MOL      0.120119
     60 N6         -3.9620    0.1850   -4.5150 n         1 MOL     -0.118894
     61 C19        -3.3040   -1.0920   -4.2730 c3        1 MOL     -0.151086
     62 C20        -3.6060   -1.7430   -2.9350 c         1 MOL      0.703613
     63 O10        -3.6230   -1.0670   -1.8970 o         1 MOL     -0.615324
     64 C21        -1.8040   -1.0260   -4.4400 c3        1 MOL     -0.147290
     65 C22        -1.0250   -0.1180   -3.5120 c         1 MOL      0.799030
     66 O11         0.1170   -0.4590   -3.1410 o         1 MOL     -0.705320
     67 O12        -1.5210    1.0310   -3.3240 o         1 MOL     -0.705320
     68 H28        -3.4870    0.9850   -4.1090 hn        1 MOL      0.171729
     69 H29        -3.6990   -1.7310   -5.0580 h1        1 MOL      0.081575
     70 H30        -1.5820   -0.6030   -5.4220 hc        1 MOL      0.038303
     71 H31        -1.3980   -2.0310   -4.3310 hc        1 MOL      0.038303
     72 N7         -3.9200   -3.0270   -2.9620 n         1 MOL     -0.472854
     73 C23        -4.1040   -3.8740   -1.7960 c3        1 MOL      0.068946
     74 C24        -2.8570   -4.4480   -1.2540 c         1 MOL      0.517682
     75 O13        -1.9950   -5.0860   -1.9240 o         1 MOL     -0.520627
     76 H32        -3.9110   -3.5480   -3.8310 hn        1 MOL      0.299439
     77 H33        -4.7980   -4.6880   -1.9850 h1        1 MOL      0.037523
     78 H34        -4.6740   -3.3830   -1.0060 h1        1 MOL      0.037523
     79 N8         -2.7740   -4.4540    0.1090 n         1 MOL     -0.424163
     80 C25        -1.6180   -4.9000    0.8950 c3        1 MOL      0.144759
     81 C26        -1.0810   -3.7950    1.7710 c         1 MOL      0.405481
     82 O14        -1.6540   -2.7090    1.8510 o         1 MOL     -0.472957
     83 C27        -1.9810   -6.1630    1.7100 c3        1 MOL      0.355910
     84 C28        -2.9740   -5.7990    2.8360 c3        1 MOL     -0.326084
     85 O15        -2.6680   -7.0600    0.8890 oh        1 MOL     -0.615287
     86 H35        -3.4960   -4.1240    0.7260 hn        1 MOL      0.240940
     87 H36        -0.8550   -5.2320    0.1880 h1        1 MOL      0.010403
     88 H37        -1.0900   -6.5260    2.2280 h1        1 MOL     -0.026644
     89 H38        -2.2290   -7.8970    1.0550 ho        1 MOL      0.396539
     90 H39        -3.9730   -5.5430    2.4860 hc        1 MOL      0.070908
     91 H40        -3.0120   -6.7450    3.3890 hc        1 MOL      0.070908
     92 H41        -2.6670   -4.9990    3.4970 hc        1 MOL      0.070908
     93 N9          0.0840   -3.9900    2.3770 n         1 MOL     -0.231458
     94 C29         0.8050   -2.9890    3.1810 c3        1 MOL     -0.176108
     95 C30         1.6910   -2.1810    2.2780 c         1 MOL      0.552030
     96 O16         1.9890   -0.9930    2.6160 o         1 MOL     -0.536769
     97 C31         1.6040   -3.7590    4.2670 c3        1 MOL      0.097160
     98 C32         0.6810   -4.4240    5.2970 c3        1 MOL      0.273704
     99 C33         2.7410   -2.9310    4.9430 c3        1 MOL     -0.234016
    100 C34        -0.1330   -3.5270    6.2730 c3        1 MOL     -0.312951
    101 H42         0.6750   -4.7560    2.0840 hn        1 MOL      0.195321
    102 H43         0.0770   -2.3900    3.7230 h1        1 MOL      0.132169
    103 H44         2.0100   -4.6110    3.7230 hc        1 MOL     -0.027546
    104 H45         1.3590   -5.0510    5.8780 hc        1 MOL     -0.081551
    105 H46        -0.0500   -5.0430    4.7810 hc        1 MOL     -0.081551
    106 H47         3.5340   -2.8000    4.1930 hc        1 MOL      0.067481
    107 H48         2.3560   -1.9410    5.2040 hc        1 MOL      0.067481
    108 H49         3.1600   -3.2960    5.8780 hc        1 MOL      0.067481
    109 H50         0.6510   -3.1560    6.9340 hc        1 MOL      0.080000
    110 H51        -0.5230   -2.6520    5.7560 hc        1 MOL      0.080000
    111 H52        -0.9260   -4.1080    6.7550 hc        1 MOL      0.080000
    112 N10         2.1820   -2.8120    1.1890 n         1 MOL     -0.267583
    113 C35         3.0590   -2.2650    0.1180 c3        1 MOL     -0.217582
    114 C36         4.3080   -3.1590    0.0080 c         1 MOL      0.650143
    115 O17         4.2680   -4.2650    0.6100 o         1 MOL     -0.548567
    116 C37         2.2790   -2.1810   -1.2590 c3        1 MOL      0.380277
    117 C38         1.5920   -3.4540   -1.8410 c3        1 MOL     -0.295774
    118 O18         1.2330   -1.3690   -0.8950 oh        1 MOL     -0.605915
    119 H53         2.0110   -3.8090    1.2030 hn        1 MOL      0.223229
    120 H54         3.3440   -1.2720    0.4720 h1        1 MOL      0.118753
    121 H55         2.9310   -1.7400   -2.0040 h1        1 MOL      0.020416
    122 H56         0.5820   -1.1810   -1.5800 ho        1 MOL      0.397062
    123 H57         1.1780   -3.2560   -2.8300 hc        1 MOL      0.070433
    124 H58         2.3970   -4.1880   -1.9010 hc        1 MOL      0.070433
    125 H59         0.7990   -3.7630   -1.1540 hc        1 MOL      0.070433
    126 N11         5.3850   -2.7110   -0.6320 n         1 MOL     -0.419780
    127 C39         6.6860   -3.4280   -0.8150 c3        1 MOL     -0.353796
    128 C40         7.9050   -2.5370   -0.6850 c         1 MOL      0.825474
    129 O19         8.9470   -3.1230   -0.3460 o         1 MOL     -0.604692
    130 C41         6.6740   -4.2250   -2.1400 c3        1 MOL      0.425345
    131 C42         6.8290   -3.3570   -3.4160 c3        1 MOL     -0.308188
    132 O20         5.5550   -5.0480   -2.3500 oh        1 MOL     -0.568143
    133 H60         5.2450   -1.8470   -1.1570 hn        1 MOL      0.271039
    134 H61         6.7890   -4.1180    0.0130 h1        1 MOL      0.164962
    135 H62         7.5690   -4.8470   -2.2220 h1        1 MOL     -0.026225
    136 H63         5.8840   -5.9530   -2.3760 ho        1 MOL      0.378394
    137 H64         6.6170   -3.9670   -4.2960 hc        1 MOL      0.077588
    138 H65         6.1390   -2.5260   -3.3460 hc        1 MOL      0.077588
    139 H66         7.8400   -2.9590   -3.4370 hc        1 MOL      0.077588
    140 N12         7.7870   -1.2010   -0.8480 n         1 MOL     -0.580529
    141 C43         8.8820   -0.2180   -0.6620 c3        1 MOL      0.047782
    142 C44         8.3020    1.2000   -0.4240 c         1 MOL      0.509153
    143 O21         7.3780    1.5580   -1.1120 o         1 MOL     -0.495507
    144 C45         9.8350   -0.2210   -1.8660 c3        1 MOL     -0.219033
    145 C46        11.1680    0.5250   -1.7060 c3        1 MOL     -0.057403
    146 C47        12.1280    0.1240   -2.8620 c3        1 MOL     -0.084766
    147 C48        13.5490    0.4960   -2.6080 c3        1 MOL      0.015936
    148 N13        14.4620   -0.2370   -3.5210 n4        1 MOL     -0.120063
    149 H67         6.9030   -0.8330   -1.1720 hn        1 MOL      0.293332
    150 H68         9.4130   -0.4820    0.2550 h1        1 MOL      0.064957
    151 H69         9.2680    0.2030   -2.6910 hc        1 MOL      0.099084
    152 H70        10.0220   -1.2670   -2.1210 hc        1 MOL      0.099084
    153 H71        11.6850    0.4060   -0.7510 hc        1 MOL      0.079283
    154 H72        10.9880    1.5980   -1.8140 hc        1 MOL      0.079283
    155 H73        11.7320    0.5240   -3.7950 hc        1 MOL      0.051652
    156 H74        12.1140   -0.9420   -3.0840 hc        1 MOL      0.051652
    157 H75        13.9060    0.2420   -1.6140 hx        1 MOL      0.081537
    158 H76        13.6990    1.5710   -2.7090 hx        1 MOL      0.081537
    159 H77        14.3100   -1.2230   -3.6870 hn        1 MOL      0.216162
    160 H78        14.2530    0.1850   -4.4210 hn        1 MOL      0.216162
    161 H79        15.4310   -0.0480   -3.3390 hn        1 MOL      0.216162
    162 N14         8.9790    1.9160    0.3920 n         1 MOL     -0.397638
    163 C49         8.8380    3.4210    0.6390 c3        1 MOL      0.110330
    164 C50         7.4100    3.9090    0.9880 c         1 MOL      0.325188
    165 O22         6.8630    4.7100    0.2610 o         1 MOL     -0.477387
    166 C51        10.0510    3.8900    1.5400 c3        1 MOL      0.032435
    167 C52         9.9410    5.4040    1.8560 c3        1 MOL     -0.158521
    168 C53        11.2820    5.8760    2.5070 c         1 MOL      0.690983
    169 O23        11.8150    6.9170    2.0790 o         1 MOL     -0.659216
    170 O24        11.8100    5.1940    3.4050 o         1 MOL     -0.659216
    171 H80         9.7830    1.4690    0.8210 hn        1 MOL      0.237142
    172 H81         9.1990    3.7000   -0.3510 h1        1 MOL      0.063748
    173 H82        11.0020    3.6230    1.0740 hc        1 MOL     -0.011127
    174 H83         9.9220    3.3810    2.4990 hc        1 MOL     -0.011127
    175 H84         9.1920    5.5890    2.6120 hc        1 MOL      0.043293
    176 H85         9.6840    5.9850    0.9710 hc        1 MOL      0.043293
    177 N15         6.7010    3.3440    1.9950 n         1 MOL     -0.276612
    178 C54         7.0670    2.6370    3.2740 c3        1 MOL     -0.156205
    179 H86         6.2930    2.8150    4.0210 h1        1 MOL      0.093269
    180 H87         7.1520    1.5660    3.0870 h1        1 MOL      0.093269
    181 H88         8.0200    3.0200    3.6410 h1        1 MOL      0.093269
    182 H89         5.7890    3.7780    2.0000 hn        1 MOL      0.272267
    183 Ca1        -4.2210    4.0470    0.1750 Ca        1 MOL      1.702477
    184 O25        -2.1140    5.2470   -1.1190 oh        1 MOL     -0.798860
    185 H90        -1.3050    4.7520   -1.2450 ho        1 MOL      0.401570
    186 H91        -2.1080    5.8940   -1.8290 ho        1 MOL      0.401570
    187 O26        -4.2780    6.7470   -0.1180 oh        1 MOL     -0.798860
    188 H92        -4.6510    7.2960    0.5800 ho        1 MOL      0.401570
    189 H93        -3.4640    7.1860   -0.3560 ho        1 MOL      0.401570
    190 O27        -2.1010    2.6920    1.4760 oh        1 MOL     -0.798860
    191 H94        -1.7280    1.8130    1.3690 ho        1 MOL      0.401570
    192 H95        -1.5480    3.0980    2.1520 ho        1 MOL      0.401570
    193 O28        -2.2660    5.8790    1.8710 oh        1 MOL     -0.798860
    194 H96        -2.4730    6.7050    2.2970 ho        1 MOL      0.401570
    195 H97        -1.8850    5.3380    2.5690 ho        1 MOL      0.401570
    196 O29        -3.1820    1.6540   -1.3940 oh        1 MOL     -0.798860
    197 H98        -2.5560    1.4790   -2.0990 ho        1 MOL      0.401570
    198 H99        -3.6310    0.8150   -1.2690 ho        1 MOL      0.401570
@<TRIPOS>BOND
     1    1    2 1   
     2    1    4 1   
     3    1    5 1   
     4    1    6 1   
     5    2    3 2   
     6    2    7 1   
     7    7    8 1   
     8    7   15 1   
     9    8    9 1   
    10    8   11 1   
    11    8   16 1   
    12    9   10 2   
    13    9   19 1   
    14   11   12 1   
    15   11   17 1   
    16   11   18 1   
    17   12   13 1   
    18   12   14 1   
    19   19   20 1   
    20   19   28 1   
    21   20   21 1   
    22   20   23 1   
    23   20   29 1   
    24   21   22 2   
    25   21   41 1   
    26   23   24 1   
    27   23   30 1   
    28   23   31 1   
    29   24   25 1   
    30   24   32 1   
    31   24   33 1   
    32   25   26 1   
    33   25   34 1   
    34   25   35 1   
    35   26   27 1   
    36   26   36 1   
    37   26   37 1   
    38   27   38 1   
    39   27   39 1   
    40   27   40 1   
    41   41   42 1   
    42   41   49 1   
    43   42   43 1   
    44   42   45 1   
    45   42   50 1   
    46   43   44 2   
    47   43   53 1   
    48   45   46 1   
    49   45   51 1   
    50   45   52 1   
    51   46   47 1   
    52   46   48 1   
    53   53   54 1   
    54   53   57 1   
    55   54   55 1   
    56   54   58 1   
    57   54   59 1   
    58   55   56 2   
    59   55   60 1   
    60   60   61 1   
    61   60   68 1   
    62   61   62 1   
    63   61   64 1   
    64   61   69 1   
    65   62   63 2   
    66   62   72 1   
    67   64   65 1   
    68   64   70 1   
    69   64   71 1   
    70   65   66 1   
    71   65   67 1   
    72   72   73 1   
    73   72   76 1   
    74   73   74 1   
    75   73   77 1   
    76   73   78 1   
    77   74   75 2   
    78   74   79 1   
    79   79   80 1   
    80   79   86 1   
    81   80   81 1   
    82   80   83 1   
    83   80   87 1   
    84   81   82 2   
    85   81   93 1   
    86   83   84 1   
    87   83   85 1   
    88   83   88 1   
    89   84   90 1   
    90   84   91 1   
    91   84   92 1   
    92   85   89 1   
    93   93   94 1   
    94   93  101 1   
    95   94   95 1   
    96   94   97 1   
    97   94  102 1   
    98   95   96 2   
    99   95  112 1   
   100   97   98 1   
   101   97   99 1   
   102   97  103 1   
   103   98  100 1   
   104   98  104 1   
   105   98  105 1   
   106   99  106 1   
   107   99  107 1   
   108   99  108 1   
   109  100  109 1   
   110  100  110 1   
   111  100  111 1   
   112  112  113 1   
   113  112  119 1   
   114  113  114 1   
   115  113  116 1   
   116  113  120 1   
   117  114  115 2   
   118  114  126 1   
   119  116  117 1   
   120  116  118 1   
   121  116  121 1   
   122  117  123 1   
   123  117  124 1   
   124  117  125 1   
   125  118  122 1   
   126  126  127 1   
   127  126  133 1   
   128  127  128 1   
   129  127  130 1   
   130  127  134 1   
   131  128  129 2   
   132  128  140 1   
   133  130  131 1   
   134  130  132 1   
   135  130  135 1   
   136  131  137 1   
   137  131  138 1   
   138  131  139 1   
   139  132  136 1   
   140  140  141 1   
   141  140  149 1   
   142  141  142 1   
   143  141  144 1   
   144  141  150 1   
   145  142  143 2   
   146  142  162 1   
   147  144  145 1   
   148  144  151 1   
   149  144  152 1   
   150  145  146 1   
   151  145  153 1   
   152  145  154 1   
   153  146  147 1   
   154  146  155 1   
   155  146  156 1   
   156  147  148 1   
   157  147  157 1   
   158  147  158 1   
   159  148  159 1   
   160  148  160 1   
   161  148  161 1   
   162  162  163 1   
   163  162  171 1   
   164  163  164 1   
   165  163  166 1   
   166  163  172 1   
   167  164  165 2   
   168  164  177 1   
   169  166  167 1   
   170  166  173 1   
   171  166  174 1   
   172  167  168 1   
   173  167  175 1   
   174  167  176 1   
   175  168  169 1   
   176  168  170 1   
   177  177  178 1   
   178  177  182 1   
   179  178  179 1   
   180  178  180 1   
   181  178  181 1   
   182  184  185 1   
   183  184  186 1   
   184  187  188 1   
   185  187  189 1   
   186  190  191 1   
   187  190  192 1   
   188  193  194 1   
   189  193  195 1   
   190  196  197 1   
   191  196  198 1   
@<TRIPOS>SUBSTRUCTURE
     1 MOL         1 TEMP              0 ****  ****    0 ROOT
