@<TRIPOS>MOLECULE
MOL
  195   189     1     0     0
SMALL
resp


@<TRIPOS>ATOM
      1 C1          3.9300    7.0170   -1.5790 c3        1 MOL     -0.349049
      2 C2          5.4530    6.7710   -1.5430 c         1 MOL      0.704277
      3 O1          6.0420    7.3570   -0.6500 o         1 MOL     -0.556590
      4 H1          3.6230    7.5260   -0.6660 hc        1 MOL      0.083981
      5 H2          3.6810    7.6370   -2.4410 hc        1 MOL      0.083981
      6 H3          3.4080    6.0630   -1.6550 hc        1 MOL      0.083981
      7 N1          6.0390    6.0230   -2.5010 n         1 MOL     -0.687545
      8 C3          7.3480    5.2860   -2.3160 c3        1 MOL      0.299994
      9 C4          7.3420    4.3330   -1.0920 c         1 MOL      0.324563
     10 O2          6.2990    4.1860   -0.4290 o         1 MOL     -0.446681
     11 C5          8.4400    6.3570   -2.2580 c3        1 MOL     -0.165340
     12 C6          9.8100    5.9130   -2.5690 c         1 MOL      0.644911
     13 O3         10.7310    6.7130   -2.4300 o         1 MOL     -0.673652
     14 O4         10.0510    4.6700   -2.8370 o         1 MOL     -0.673652
     15 H4          5.5030    5.6280   -3.2660 hn        1 MOL      0.333906
     16 H5          7.5440    4.7640   -3.2460 h1        1 MOL      0.006196
     17 H6          8.4550    6.8550   -1.2870 hc        1 MOL      0.060694
     18 H7          8.2330    7.1390   -2.9770 hc        1 MOL      0.060694
     19 N2          8.5040    3.6690   -0.8330 n         1 MOL     -0.433012
     20 C7          8.7530    3.0290    0.4380 c3        1 MOL      0.493864
     21 C8          7.7060    1.9940    0.8630 c         1 MOL      0.327072
     22 O5          7.1790    2.1190    1.9230 o         1 MOL     -0.522220
     23 C9          9.1450    4.1970    1.4300 c3        1 MOL     -0.253111
     24 C10         9.6420    3.7450    2.8180 c3        1 MOL     -0.045180
     25 C11        10.9750    2.9610    2.6370 c3        1 MOL     -0.060942
     26 C12        11.4390    2.3450    3.9990 c3        1 MOL      0.002064
     27 N3         11.9180    3.3180    4.9870 n4        1 MOL     -0.389659
     28 H8          9.2640    3.7920   -1.4880 hn        1 MOL      0.178285
     29 H9          9.6060    2.3580    0.2970 h1        1 MOL     -0.044016
     30 H10         8.2490    4.8210    1.5010 hc        1 MOL      0.110498
     31 H11         9.8010    4.9020    0.9260 hc        1 MOL      0.110498
     32 H12         8.9700    3.0930    3.3690 hc        1 MOL      0.033149
     33 H13         9.8120    4.5730    3.5060 hc        1 MOL      0.033149
     34 H14        11.7460    3.5720    2.1610 hc        1 MOL      0.049560
     35 H15        10.8340    2.0820    2.0180 hc        1 MOL      0.049560
     36 H16        12.2370    1.6450    3.7690 hx        1 MOL      0.100383
     37 H17        10.6040    1.7640    4.4040 hx        1 MOL      0.100383
     38 H18        11.3110    4.1130    5.1600 hn        1 MOL      0.330504
     39 H19        12.0460    2.9120    5.8990 hn        1 MOL      0.330504
     40 H20        12.7530    3.7290    4.5950 hn        1 MOL      0.330504
     41 N4          7.2710    1.0820    0.0090 n         1 MOL     -0.502596
     42 C13         6.3550   -0.0460    0.1970 c3        1 MOL      0.313558
     43 C14         6.5120   -1.0160   -0.9740 c         1 MOL      0.297800
     44 O6          6.3000   -0.6310   -2.1150 o         1 MOL     -0.545349
     45 C15         4.9180    0.4890    0.2610 c3        1 MOL     -0.174703
     46 C16         3.9580   -0.5220    0.6990 c         1 MOL      0.663463
     47 O7          4.3300   -1.6260    1.1680 o         1 MOL     -0.757217
     48 O8          2.7760   -0.2450    0.7520 o         1 MOL     -0.757217
     49 H21         7.8100    1.0230   -0.8390 hn        1 MOL      0.280145
     50 H22         6.7020   -0.5120    1.1150 h1        1 MOL      0.054988
     51 H23         4.6080    0.9770   -0.6550 hc        1 MOL      0.094218
     52 H24         4.8280    1.2510    1.0280 hc        1 MOL      0.094218
     53 N5          6.7250   -2.2920   -0.8180 n         1 MOL     -0.126772
     54 C17         7.0610   -2.9440    0.4170 c3        1 MOL     -0.188991
     55 C18         6.3190   -4.3270    0.5360 c         1 MOL      0.581237
     56 O9          6.4410   -5.1280   -0.3540 o         1 MOL     -0.564836
     57 H25         6.6560   -2.9450   -1.5790 hn        1 MOL      0.231512
     58 H26         6.7760   -2.4250    1.3280 h1        1 MOL      0.055706
     59 H27         8.1460   -3.0140    0.5140 h1        1 MOL      0.055706
     60 N6          5.5320   -4.5080    1.5600 n         1 MOL     -0.405258
     61 C19         4.7030   -5.7040    1.6510 c3        1 MOL     -0.096652
     62 C20         3.3920   -5.5620    0.8340 c         1 MOL      0.726974
     63 O10         2.7490   -4.5530    0.8810 o         1 MOL     -0.643566
     64 C21         4.2700   -6.0480    3.1270 c3        1 MOL     -0.105852
     65 C22         3.5730   -4.9550    3.9870 c         1 MOL      0.511955
     66 O11         3.3730   -3.7380    3.6360 o         1 MOL     -0.631914
     67 O12         3.3300   -5.2830    5.1740 o         1 MOL     -0.631914
     68 H28         5.5780   -3.8170    2.2910 hn        1 MOL      0.348420
     69 H29         5.3300   -6.5390    1.3200 h1        1 MOL      0.075008
     70 H30         5.1970   -6.3140    3.6230 hc        1 MOL      0.053186
     71 H31         3.7110   -6.9720    3.2100 hc        1 MOL      0.053186
     72 N7          2.9820   -6.6000    0.0570 n         1 MOL     -0.480450
     73 C23         1.6040   -6.8440   -0.3860 c3        1 MOL     -0.006264
     74 C24         1.1830   -5.9460   -1.5140 c         1 MOL      0.570190
     75 O13         0.1520   -6.1970   -2.1730 o         1 MOL     -0.584514
     76 H32         3.6400   -7.3580   -0.0260 hn        1 MOL      0.284679
     77 H33         0.9660   -6.6250    0.4690 h1        1 MOL      0.066499
     78 H34         1.4710   -7.8830   -0.6670 h1        1 MOL      0.066499
     79 N8          1.8800   -4.7950   -1.7450 n         1 MOL     -0.314956
     80 C25         1.4860   -3.7220   -2.6710 c3        1 MOL     -0.087239
     81 C26         0.8380   -2.5980   -1.8680 c         1 MOL      0.445417
     82 O14         1.0490   -2.4960   -0.6640 o         1 MOL     -0.450390
     83 C27         2.6260   -3.2140   -3.5930 c3        1 MOL      0.201149
     84 C28         3.7000   -2.4770   -2.8290 c3        1 MOL     -0.160014
     85 O15         3.2630   -4.2770   -4.2110 oh        1 MOL     -0.604267
     86 H35         2.6410   -4.5250   -1.1400 hn        1 MOL      0.188387
     87 H36         0.7530   -4.2220   -3.3090 h1        1 MOL      0.086652
     88 H37         2.2440   -2.5330   -4.3560 h1        1 MOL      0.021771
     89 H38         2.7070   -4.6220   -4.9090 ho        1 MOL      0.408406
     90 H39         4.4660   -2.0690   -3.4860 hc        1 MOL      0.095331
     91 H40         3.2850   -1.7540   -2.1290 hc        1 MOL      0.095331
     92 H41         4.0760   -3.2450   -2.1550 hc        1 MOL      0.095331
     93 N9          0.1140   -1.7290   -2.5060 n         1 MOL     -0.215714
     94 C29        -0.3490   -0.4830   -1.9230 c3        1 MOL     -0.049772
     95 C30        -1.7670   -0.5200   -1.3740 c         1 MOL      0.341954
     96 O16        -2.1210    0.3580   -0.5810 o         1 MOL     -0.526887
     97 C31        -0.0030    0.7810   -2.7290 c3        1 MOL      0.258441
     98 C32        -0.6970    0.7180   -4.0930 c3        1 MOL      0.165297
     99 C33         1.5060    0.7990   -3.0340 c3        1 MOL     -0.246934
    100 C34        -0.8830    2.1050   -4.7120 c3        1 MOL     -0.307281
    101 H42        -0.2610   -1.8890   -3.4340 hn        1 MOL      0.174453
    102 H43         0.2270   -0.2910   -1.0190 h1        1 MOL      0.059084
    103 H44        -0.3250    1.7000   -2.2240 hc        1 MOL      0.007139
    104 H45        -1.7050    0.3290   -4.0040 hc        1 MOL     -0.042007
    105 H46        -0.0770    0.0940   -4.7420 hc        1 MOL     -0.042007
    106 H47         1.9770    0.9090   -2.0520 hc        1 MOL      0.046098
    107 H48         1.9130   -0.1130   -3.4680 hc        1 MOL      0.046098
    108 H49         1.6780    1.7200   -3.5950 hc        1 MOL      0.046098
    109 H50        -1.6040    1.9950   -5.5190 hc        1 MOL      0.073427
    110 H51        -1.2510    2.8050   -3.9640 hc        1 MOL      0.073427
    111 H52         0.0020    2.6420   -5.0610 hc        1 MOL      0.073427
    112 N10        -2.5820   -1.4650   -1.7230 n         1 MOL     -0.190779
    113 C35        -3.8670   -1.7920   -1.1330 c3        1 MOL     -0.157201
    114 C36        -5.0300   -1.8510   -2.0990 c         1 MOL      0.610088
    115 O17        -4.9560   -2.5420   -3.0850 o         1 MOL     -0.557283
    116 C37        -3.8160   -3.0620   -0.3260 c3        1 MOL      0.433134
    117 C38        -3.5450   -4.3320   -1.1310 c3        1 MOL     -0.352310
    118 O18        -2.7990   -2.9620    0.6270 oh        1 MOL     -0.642288
    119 H53        -2.3110   -2.0900   -2.4680 hn        1 MOL      0.195875
    120 H54        -4.1600   -1.0360   -0.4010 h1        1 MOL      0.101566
    121 H55        -4.8050   -3.1690    0.1280 h1        1 MOL     -0.028188
    122 H56        -3.1880   -2.8480    1.4960 ho        1 MOL      0.391508
    123 H57        -3.3190   -5.1460   -0.4450 hc        1 MOL      0.102539
    124 H58        -4.3720   -4.5850   -1.7880 hc        1 MOL      0.102539
    125 H59        -2.6200   -4.1700   -1.6820 hc        1 MOL      0.102539
    126 N11        -6.1450   -1.2460   -1.7880 n         1 MOL     -0.362720
    127 C39        -7.4260   -1.2380   -2.5390 c3        1 MOL     -0.065004
    128 C40        -8.2160    0.0440   -2.1340 c         1 MOL      0.442181
    129 O19        -8.4650    0.9800   -2.9390 o         1 MOL     -0.507310
    130 C41        -8.1840   -2.5750   -2.2080 c3        1 MOL      0.175582
    131 C42        -9.6140   -2.5950   -2.7270 c3        1 MOL     -0.320178
    132 O20        -8.2670   -2.8240   -0.8170 oh        1 MOL     -0.614934
    133 H60        -6.2070   -0.6940   -0.9480 hn        1 MOL      0.223642
    134 H61        -7.3060   -1.1050   -3.6220 h1        1 MOL      0.128712
    135 H62        -7.7050   -3.4280   -2.6890 h1        1 MOL      0.091197
    136 H63        -8.8270   -3.5890   -0.6550 ho        1 MOL      0.417788
    137 H64       -10.0340   -3.5900   -2.5750 hc        1 MOL      0.089307
    138 H65       -10.2800   -1.8070   -2.3600 hc        1 MOL      0.089307
    139 H66        -9.5740   -2.5180   -3.8150 hc        1 MOL      0.089307
    140 N12        -8.6780    0.0510   -0.8730 n         1 MOL     -0.107455
    141 C43        -9.5130    1.0430   -0.2380 c3        1 MOL     -0.142715
    142 C44        -8.9110    1.6440    1.0340 c         1 MOL      0.346709
    143 O21        -8.2080    0.9760    1.7020 o         1 MOL     -0.482475
    144 C45       -10.8470    0.3540    0.0610 c3        1 MOL      0.030715
    145 C46       -11.9650    1.1310    0.8160 c3        1 MOL      0.140833
    146 C47       -13.1620    0.2260    1.0660 c3        1 MOL     -0.164675
    147 C48       -14.4090    1.0580    1.4400 c3        1 MOL      0.234062
    148 N13       -15.3380    0.1230    2.0420 n4        1 MOL     -0.324479
    149 H67        -8.4590   -0.7980   -0.3720 hn        1 MOL      0.193090
    150 H68        -9.5640    1.8970   -0.8990 h1        1 MOL      0.092953
    151 H69       -10.6730   -0.6300    0.5090 hc        1 MOL      0.003773
    152 H70       -11.1990    0.0500   -0.9290 hc        1 MOL      0.003773
    153 H71       -12.3310    1.9580    0.2070 hc        1 MOL     -0.006023
    154 H72       -11.5850    1.5330    1.7560 hc        1 MOL     -0.006023
    155 H73       -12.9330   -0.4360    1.9030 hc        1 MOL      0.028452
    156 H74       -13.4200   -0.2880    0.1430 hc        1 MOL      0.028452
    157 H75       -14.9130    1.5220    0.5920 hx        1 MOL      0.046236
    158 H76       -14.1730    1.8150    2.1920 hx        1 MOL      0.046236
    159 H77       -16.2410    0.5360    2.2000 hn        1 MOL      0.293419
    160 H78       -15.4880   -0.7030    1.4830 hn        1 MOL      0.293419
    161 H79       -14.9320   -0.1760    2.9290 hn        1 MOL      0.293419
    162 N14        -9.0980    2.9640    1.2220 n         1 MOL      0.023531
    163 C49        -8.7450    3.6880    2.4200 c3        1 MOL     -0.005734
    164 C50        -7.2620    4.1180    2.5960 c         1 MOL      0.282853
    165 O22        -6.5880    3.6740    3.5460 o         1 MOL     -0.522303
    166 C51        -9.5550    4.9630    2.5390 c3        1 MOL      0.092924
    167 C52       -11.0540    4.5730    2.6260 c3        1 MOL     -0.190887
    168 C53       -11.7470    5.0260    1.2480 c         1 MOL      0.579562
    169 O23       -11.2970    4.7270    0.1320 o         1 MOL     -0.651237
    170 O24       -12.6870    5.8120    1.3590 o         1 MOL     -0.651237
    171 H80        -9.6060    3.5140    0.5440 hn        1 MOL      0.116948
    172 H81        -9.0140    3.0730    3.2720 h1        1 MOL      0.033761
    173 H82        -9.3200    5.5890    1.6820 hc        1 MOL      0.031528
    174 H83        -9.2970    5.6800    3.3310 hc        1 MOL      0.031528
    175 H84       -11.5790    4.7750    3.5550 hc        1 MOL      0.008019
    176 H85       -11.0200    3.4880    2.6530 hc        1 MOL      0.008019
    177 N15        -6.5550    4.7080    1.6470 n         1 MOL     -0.290639
    178 C54        -6.8590    5.1240    0.2530 c3        1 MOL     -0.141634
    179 H86        -6.1880    4.6090   -0.4340 h1        1 MOL      0.080110
    180 H87        -7.8900    4.8680    0.0130 h1        1 MOL      0.080110
    181 H88        -6.7190    6.2010    0.1550 h1        1 MOL      0.080110
    182 H89        -5.6280    5.0010    1.9280 hn        1 MOL      0.284228
    183 Ca1         1.7270   -2.3140    1.9830 Ca        1 MOL      1.759629
    184 O25        -0.2360   -4.0030    1.6100 oh        1 MOL     -0.858177
    185 H90        -1.1310   -3.7300    1.4330 ho        1 MOL      0.420797
    186 H91        -0.3080   -4.8680    2.0150 ho        1 MOL      0.420797
    187 O26         3.0250   -0.7700    3.7750 oh        1 MOL     -0.858177
    188 H92         2.9200   -0.0050    3.2110 ho        1 MOL      0.420797
    189 H93         3.4200   -0.4310    4.5620 ho        1 MOL      0.420797
    190 O27        -0.6440   -1.2180    1.7150 oh        1 MOL     -0.858177
    191 H94        -1.3110   -1.6670    1.1820 ho        1 MOL      0.420797
    192 H95        -0.9790   -0.3210    1.8080 ho        1 MOL      0.420797
    193 O28         0.5920   -2.4900    4.4060 oh        1 MOL     -0.858177
    194 H96        -0.0940   -2.9010    4.9230 ho        1 MOL      0.420797
    195 H97         1.3450   -2.4400    4.9910 ho        1 MOL      0.420797
@<TRIPOS>BOND
     1    1    2 1   
     2    1    4 1   
     3    1    5 1   
     4    1    6 1   
     5    2    3 2   
     6    2    7 1   
     7    7    8 1   
     8    7   15 1   
     9    8    9 1   
    10    8   11 1   
    11    8   16 1   
    12    9   10 2   
    13    9   19 1   
    14   11   12 1   
    15   11   17 1   
    16   11   18 1   
    17   12   13 1   
    18   12   14 1   
    19   19   20 1   
    20   19   28 1   
    21   20   21 1   
    22   20   23 1   
    23   20   29 1   
    24   21   22 2   
    25   21   41 1   
    26   23   24 1   
    27   23   30 1   
    28   23   31 1   
    29   24   25 1   
    30   24   32 1   
    31   24   33 1   
    32   25   26 1   
    33   25   34 1   
    34   25   35 1   
    35   26   27 1   
    36   26   36 1   
    37   26   37 1   
    38   27   38 1   
    39   27   39 1   
    40   27   40 1   
    41   41   42 1   
    42   41   49 1   
    43   42   43 1   
    44   42   45 1   
    45   42   50 1   
    46   43   44 2   
    47   43   53 1   
    48   45   46 1   
    49   45   51 1   
    50   45   52 1   
    51   46   47 1   
    52   46   48 1   
    53   53   54 1   
    54   53   57 1   
    55   54   55 1   
    56   54   58 1   
    57   54   59 1   
    58   55   56 2   
    59   55   60 1   
    60   60   61 1   
    61   60   68 1   
    62   61   62 1   
    63   61   64 1   
    64   61   69 1   
    65   62   63 2   
    66   62   72 1   
    67   64   65 1   
    68   64   70 1   
    69   64   71 1   
    70   65   66 1   
    71   65   67 1   
    72   72   73 1   
    73   72   76 1   
    74   73   74 1   
    75   73   77 1   
    76   73   78 1   
    77   74   75 2   
    78   74   79 1   
    79   79   80 1   
    80   79   86 1   
    81   80   81 1   
    82   80   83 1   
    83   80   87 1   
    84   81   82 2   
    85   81   93 1   
    86   83   84 1   
    87   83   85 1   
    88   83   88 1   
    89   84   90 1   
    90   84   91 1   
    91   84   92 1   
    92   85   89 1   
    93   93   94 1   
    94   93  101 1   
    95   94   95 1   
    96   94   97 1   
    97   94  102 1   
    98   95   96 2   
    99   95  112 1   
   100   97   98 1   
   101   97   99 1   
   102   97  103 1   
   103   98  100 1   
   104   98  104 1   
   105   98  105 1   
   106   99  106 1   
   107   99  107 1   
   108   99  108 1   
   109  100  109 1   
   110  100  110 1   
   111  100  111 1   
   112  112  113 1   
   113  112  119 1   
   114  113  114 1   
   115  113  116 1   
   116  113  120 1   
   117  114  115 2   
   118  114  126 1   
   119  116  117 1   
   120  116  118 1   
   121  116  121 1   
   122  117  123 1   
   123  117  124 1   
   124  117  125 1   
   125  118  122 1   
   126  126  127 1   
   127  126  133 1   
   128  127  128 1   
   129  127  130 1   
   130  127  134 1   
   131  128  129 2   
   132  128  140 1   
   133  130  131 1   
   134  130  132 1   
   135  130  135 1   
   136  131  137 1   
   137  131  138 1   
   138  131  139 1   
   139  132  136 1   
   140  140  141 1   
   141  140  149 1   
   142  141  142 1   
   143  141  144 1   
   144  141  150 1   
   145  142  143 2   
   146  142  162 1   
   147  144  145 1   
   148  144  151 1   
   149  144  152 1   
   150  145  146 1   
   151  145  153 1   
   152  145  154 1   
   153  146  147 1   
   154  146  155 1   
   155  146  156 1   
   156  147  148 1   
   157  147  157 1   
   158  147  158 1   
   159  148  159 1   
   160  148  160 1   
   161  148  161 1   
   162  162  163 1   
   163  162  171 1   
   164  163  164 1   
   165  163  166 1   
   166  163  172 1   
   167  164  165 2   
   168  164  177 1   
   169  166  167 1   
   170  166  173 1   
   171  166  174 1   
   172  167  168 1   
   173  167  175 1   
   174  167  176 1   
   175  168  169 1   
   176  168  170 1   
   177  177  178 1   
   178  177  182 1   
   179  178  179 1   
   180  178  180 1   
   181  178  181 1   
   182  184  185 1   
   183  184  186 1   
   184  187  188 1   
   185  187  189 1   
   186  190  191 1   
   187  190  192 1   
   188  193  194 1   
   189  193  195 1   
@<TRIPOS>SUBSTRUCTURE
     1 MOL         1 TEMP              0 ****  ****    0 ROOT
