@<TRIPOS>MOLECULE
MOL
  189   185     1     0     0
SMALL
resp


@<TRIPOS>ATOM
      1 C1          4.2010    4.7030   -3.0230 c3        1 MOL     -0.295002
      2 C2          4.9500    3.5500   -2.2800 c         1 MOL      0.636259
      3 O1          4.3480    2.9680   -1.3860 o         1 MOL     -0.590147
      4 H1          4.3220    4.5800   -4.1000 hc        1 MOL      0.084435
      5 H2          3.1410    4.6710   -2.7710 hc        1 MOL      0.084435
      6 H3          4.6180    5.6630   -2.7200 hc        1 MOL      0.084435
      7 N1          6.2170    3.1970   -2.6020 n         1 MOL     -0.636982
      8 C3          7.0020    2.0340   -2.1630 c3        1 MOL      0.341150
      9 C4          6.1900    0.7560   -1.8770 c         1 MOL      0.134322
     10 O2          6.0110    0.4960   -0.6860 o         1 MOL     -0.087855
     11 C5          8.1270    2.3350   -1.1750 c3        1 MOL     -0.240206
     12 C6          7.6680    3.1920   -0.0310 c         1 MOL      0.767749
     13 O3          6.6310    2.9100    0.5930 o         1 MOL     -0.720439
     14 O4          8.4680    4.0280    0.4300 o         1 MOL     -0.720439
     15 H4          6.5310    3.6400   -3.4560 hn        1 MOL      0.314888
     16 H5          7.5860    1.7140   -3.0340 h1        1 MOL     -0.015131
     17 H6          8.8480    2.9010   -1.7730 hc        1 MOL      0.028821
     18 H7          8.5480    1.4160   -0.7820 hc        1 MOL      0.028821
     19 N2          5.5720    0.1760   -2.9440 n         1 MOL     -0.442144
     20 C7          4.6320   -0.9270   -2.9860 c3        1 MOL      0.284313
     21 C8          5.0990   -2.2930   -2.4430 c         1 MOL      0.219372
     22 O5          5.0430   -3.2450   -3.2220 o         1 MOL     -0.540782
     23 C9          3.2410   -0.5000   -2.4800 c3        1 MOL      0.096681
     24 C10         2.1740   -1.5530   -2.3580 c3        1 MOL     -0.113789
     25 C11         2.7110    0.6890   -3.3470 c3        1 MOL     -0.070931
     26 C12         1.8020   -2.3630   -3.5720 c3        1 MOL     -0.583125
     27 H8          5.7990    0.7030   -3.7700 hn        1 MOL      0.263237
     28 H9          4.4720   -1.1330   -4.0470 h1        1 MOL      0.014396
     29 H10         3.4070   -0.0620   -1.4960 hc        1 MOL      0.010060
     30 H11         1.2200   -1.0930   -2.1050 hc        1 MOL      0.219568
     31 H12         2.4510   -2.2010   -1.5260 hc        1 MOL      0.219568
     32 H13         2.8800    0.3700   -4.3780 hc        1 MOL     -0.012808
     33 H14         1.6630    0.8660   -3.1330 hc        1 MOL     -0.012808
     34 H15         3.3130    1.5770   -3.1550 hc        1 MOL     -0.012808
     35 H16         1.3890   -1.7530   -4.3850 hc        1 MOL      0.143249
     36 H17         2.6480   -2.8730   -4.0330 hc        1 MOL      0.143249
     37 H18         1.1580   -3.1580   -3.1960 hc        1 MOL      0.143249
     38 N3          5.7910   -2.2590   -1.3150 n         1 MOL      0.090913
     39 C13         6.6170   -3.3270   -0.8640 c3        1 MOL      0.147376
     40 C14         5.8390   -4.6330   -0.6190 c         1 MOL      0.503372
     41 O6          6.2010   -5.7060   -1.1970 o         1 MOL     -0.589747
     42 C15         7.3140   -2.8770    0.4420 c3        1 MOL     -0.081765
     43 C16         8.1320   -3.9950    1.1980 c         1 MOL      0.638019
     44 O7          7.5430   -4.9220    1.7460 o         1 MOL     -0.710674
     45 O8          9.3600   -3.9090    1.0390 o         1 MOL     -0.710674
     46 H19         5.7470   -1.4000   -0.7820 hn        1 MOL     -0.188838
     47 H20         7.4420   -3.4220   -1.5720 h1        1 MOL      0.000466
     48 H21         6.5680   -2.5520    1.1590 hc        1 MOL      0.011613
     49 H22         8.0090   -2.0530    0.2880 hc        1 MOL      0.011613
     50 N4          4.7770   -4.6880    0.1930 n         1 MOL     -0.359261
     51 C17         3.9000   -3.6560    0.6770 c3        1 MOL      0.031001
     52 C18         2.9180   -4.0980    1.7820 c         1 MOL      0.662072
     53 O9          2.6720   -5.2350    2.0060 o         1 MOL     -0.604697
     54 H23         4.4880   -5.6310    0.4180 hn        1 MOL      0.258028
     55 H24         3.3050   -3.2820   -0.1540 h1        1 MOL     -0.007246
     56 H25         4.5740   -2.9180    1.1040 h1        1 MOL     -0.007246
     57 N5          2.3890   -3.2250    2.6140 n         1 MOL     -0.521923
     58 C19         2.4040   -1.7280    2.7290 c3        1 MOL      0.254064
     59 C20         2.3780   -1.0340    1.3780 c         1 MOL     -0.003957
     60 O10         3.4230   -0.5800    0.9860 o         1 MOL     -0.151753
     61 C21         3.5440   -1.3550    3.6710 c3        1 MOL     -0.406817
     62 C22         3.6850    0.1560    3.8530 c         1 MOL      0.791906
     63 O11         3.1190    1.0110    3.1230 o         1 MOL     -0.710792
     64 O12         4.4670    0.5750    4.7630 o         1 MOL     -0.710792
     65 H26         1.8260   -3.7410    3.2810 hn        1 MOL      0.284207
     66 H27         1.5090   -1.3360    3.2110 h1        1 MOL      0.081481
     67 H28         4.4160   -1.7930    3.1910 hc        1 MOL      0.108472
     68 H29         3.4200   -1.8460    4.6400 hc        1 MOL      0.108472
     69 N6          1.2740   -1.0040    0.6260 n         1 MOL     -0.027707
     70 C23        -0.1520   -1.2670    0.9290 c3        1 MOL     -0.097054
     71 C24        -0.7080   -2.6050    0.2570 c         1 MOL      0.281956
     72 O13         0.0010   -3.3950   -0.4380 o         1 MOL     -0.525133
     73 H30         1.4390   -0.4960   -0.2380 hn        1 MOL      0.017259
     74 H31        -0.8070   -0.4300    0.6580 h1        1 MOL      0.090927
     75 H32        -0.3490   -1.5190    1.9680 h1        1 MOL      0.090927
     76 N7         -1.9730   -2.7990    0.3650 n         1 MOL     -0.045410
     77 C25        -2.8170   -4.0060   -0.0440 c3        1 MOL     -0.182391
     78 C26        -3.3710   -3.7390   -1.4940 c         1 MOL      0.368877
     79 O14        -3.6720   -4.6920   -2.2240 o         1 MOL     -0.480274
     80 C27        -4.0310   -4.1400    0.8990 c3        1 MOL     -0.041422
     81 C28        -3.8710   -4.7080    2.2810 c3        1 MOL     -0.282739
     82 C29        -2.7260   -4.0020    3.0890 c         1 MOL      0.556766
     83 N8         -1.5490   -4.5780    3.1670 n         1 MOL     -0.668855
     84 O15        -2.7120   -2.7920    3.2450 o         1 MOL     -0.513644
     85 H33        -2.3700   -1.9470    0.7380 hn        1 MOL      0.183057
     86 H34        -2.3720   -4.9910    0.0880 h1        1 MOL      0.162853
     87 H35        -4.7160   -4.7770    0.3230 hc        1 MOL      0.110448
     88 H36        -4.5080   -3.1790    1.1090 hc        1 MOL      0.110448
     89 H37        -3.6390   -5.7660    2.2360 hc        1 MOL      0.084138
     90 H38        -4.8230   -4.6920    2.8110 hc        1 MOL      0.084138
     91 H39        -1.5540   -5.5430    2.8650 hn        1 MOL      0.334546
     92 H40        -0.7260   -4.0490    3.4350 hn        1 MOL      0.334546
     93 N9         -3.3980   -2.4350   -1.8530 n         1 MOL     -0.221847
     94 C30        -3.8850   -2.0180   -3.2030 c3        1 MOL     -0.048223
     95 C31        -5.1920   -1.2260   -3.2650 c         1 MOL      0.452491
     96 O16        -5.6890   -0.9590   -4.3590 o         1 MOL     -0.569024
     97 C32        -2.7580   -1.3190   -4.0690 c3        1 MOL      0.253983
     98 C33        -1.5930   -2.2240   -4.6140 c3        1 MOL     -0.178861
     99 C34        -2.0520   -0.1720   -3.4050 c3        1 MOL     -0.178861
    100 H41        -3.0930   -1.7470   -1.1820 hn        1 MOL      0.224167
    101 H42        -4.0760   -2.9210   -3.7800 h1        1 MOL      0.101036
    102 H43        -3.2360   -0.8520   -4.9220 hc        1 MOL     -0.029111
    103 H44        -0.9060   -1.6770   -5.2650 hc        1 MOL      0.035595
    104 H45        -1.0450   -2.6750   -3.7930 hc        1 MOL      0.035595
    105 H46        -2.0670   -3.0130   -5.1840 hc        1 MOL      0.035595
    106 H47        -1.3790    0.3130   -4.1100 hc        1 MOL      0.035595
    107 H48        -2.7500    0.6140   -3.0890 hc        1 MOL      0.035595
    108 H49        -1.4160   -0.5520   -2.6110 hc        1 MOL      0.035595
    109 N10        -5.8260   -0.8620   -2.1910 n         1 MOL     -0.216816
    110 C35        -7.1570   -0.2590   -2.2290 c3        1 MOL      0.004287
    111 C36        -7.1740    1.0380   -1.4060 c         1 MOL      0.670702
    112 O17        -7.8840    1.9370   -1.6970 o         1 MOL     -0.554527
    113 C37        -8.2300   -1.2710   -1.7780 c3        1 MOL     -0.249825
    114 C38        -7.9650   -2.7650   -2.0360 c         1 MOL      0.695335
    115 N11        -8.3360   -3.2670   -3.1780 n         1 MOL     -0.824079
    116 O18        -7.6100   -3.4730   -1.1170 o         1 MOL     -0.533413
    117 H50        -5.2850   -0.9130   -1.3370 hn        1 MOL     -0.000256
    118 H51        -7.4140    0.1150   -3.2250 h1        1 MOL      0.090158
    119 H52        -9.1870   -0.9250   -2.1720 hc        1 MOL      0.061440
    120 H53        -8.3330   -1.2400   -0.6990 hc        1 MOL      0.061440
    121 H54        -8.4390   -2.5840   -3.9160 hn        1 MOL      0.379140
    122 H55        -8.5330   -4.2480   -3.2620 hn        1 MOL      0.379140
    123 N12        -6.3160    1.0530   -0.3520 n         1 MOL     -0.688191
    124 C39        -6.1300    2.0710    0.6880 c3        1 MOL      0.309965
    125 C40        -4.7720    2.7870    0.6710 c         1 MOL      0.359672
    126 O19        -3.8310    2.2190    0.2160 o         1 MOL     -0.446084
    127 C41        -6.3110    1.5070    2.0920 c3        1 MOL     -0.046864
    128 C42        -7.2330    0.2660    2.1530 ca        1 MOL      0.012113
    129 C43        -6.7880   -1.0690    1.9380 ca        1 MOL     -0.118125
    130 C44        -8.6150    0.4240    2.2080 ca        1 MOL     -0.118125
    131 C45        -7.6400   -2.2120    1.8660 ca        1 MOL     -0.278963
    132 C46        -9.5200   -0.6900    2.0870 ca        1 MOL     -0.278963
    133 C47        -9.0310   -1.9650    1.8530 ca        1 MOL      0.378398
    134 O20        -9.9180   -2.9340    1.6310 oh        1 MOL     -0.470711
    135 H56        -5.8490    0.1700   -0.2380 hn        1 MOL      0.460924
    136 H57        -6.9140    2.8100    0.5040 h1        1 MOL      0.001175
    137 H58        -6.6340    2.2970    2.7640 hc        1 MOL      0.050921
    138 H59        -5.3440    1.1960    2.4890 hc        1 MOL      0.050921
    139 H60        -5.7370   -1.1320    1.7040 ha        1 MOL      0.090218
    140 H61        -8.9910    1.4170    2.3960 ha        1 MOL      0.090218
    141 H62        -7.2510   -3.2010    1.6810 ha        1 MOL      0.127883
    142 H63       -10.5750   -0.5010    2.2050 ha        1 MOL      0.127883
    143 H64       -10.8070   -2.5810    1.5570 ho        1 MOL      0.341496
    144 N13        -4.6420    4.0220    1.2120 n         1 MOL     -0.428587
    145 C48        -3.4390    4.7650    1.6460 c3        1 MOL      0.063586
    146 C49        -2.4190    5.2110    0.6470 c         1 MOL      0.291909
    147 O21        -1.8710    6.3210    0.6250 o         1 MOL     -0.522320
    148 C50        -2.6990    4.0840    2.8340 c3        1 MOL      0.011371
    149 C51        -3.5400    3.9830    4.1330 c3        1 MOL     -0.215889
    150 C52        -2.8820    3.0710    5.1780 c         1 MOL      0.613907
    151 O22        -2.2550    3.4800    6.1880 o         1 MOL     -0.683717
    152 O23        -2.8190    1.8330    4.8840 o         1 MOL     -0.683717
    153 H65        -5.5380    4.4360    1.4460 hn        1 MOL      0.264894
    154 H66        -3.9350    5.6680    2.0070 h1        1 MOL      0.068619
    155 H67        -1.7880    4.6280    3.0940 hc        1 MOL      0.100513
    156 H68        -2.5190    3.0510    2.5220 hc        1 MOL      0.100513
    157 H69        -4.5100    3.5120    3.9290 hc        1 MOL     -0.003320
    158 H70        -3.7950    4.9970    4.4350 hc        1 MOL     -0.003320
    159 N14        -2.0350    4.3280   -0.3120 n         1 MOL     -0.174258
    160 C53        -0.8930    4.3600   -1.2200 c3        1 MOL     -0.104967
    161 C54        -1.1240    5.2810   -2.4310 c         1 MOL      0.426282
    162 O24        -0.1820    5.4690   -3.2880 o         1 MOL     -0.551363
    163 C55        -0.6150    2.9390   -1.6280 c3        1 MOL     -0.349353
    164 C56        -0.2810    2.0630   -0.5070 c3        1 MOL      0.303949
    165 C57         0.9730    2.4770    0.2210 c         1 MOL      0.704775
    166 O25         0.9010    3.4990    0.9530 o         1 MOL     -0.651326
    167 O26         2.0840    1.8850    0.0890 o         1 MOL     -0.651326
    168 H71        -2.4980    3.4260   -0.3420 hn        1 MOL      0.202810
    169 H72        -0.0490    4.7580   -0.6540 h1        1 MOL      0.195197
    170 H73         0.3240    2.9090   -2.1840 hc        1 MOL      0.116388
    171 H74        -1.4480    2.4750   -2.1730 hc        1 MOL      0.116388
    172 H75        -0.1170    1.0850   -0.9440 hc        1 MOL     -0.145224
    173 H76        -1.0850    2.1260    0.2240 hc        1 MOL     -0.145224
    174 N15        -2.3260    5.8240   -2.5880 n         1 MOL     -0.169649
    175 C58        -2.7450    6.8670   -3.6470 c3        1 MOL     -0.255444
    176 H77        -2.3390    6.5810   -4.6180 h1        1 MOL      0.106285
    177 H78        -3.8320    6.9090   -3.7070 h1        1 MOL      0.106285
    178 H79        -2.3570    7.8460   -3.3660 h1        1 MOL      0.106285
    179 H80        -3.0320    5.4460   -1.9730 hn        1 MOL      0.195771
    180 Ca1         4.4290    1.8100    1.0190 Ca        1 MOL      1.518862
    181 O27         6.3960    0.2280    2.0610 oh        1 MOL     -0.826858
    182 H81         7.0130   -0.4800    1.8600 ho        1 MOL      0.389529
    183 H82         6.7930    0.6910    2.8040 ho        1 MOL      0.389529
    184 O28         3.2830    4.1260    1.7630 oh        1 MOL     -0.826858
    185 H83         2.4330    4.1020    1.3140 ho        1 MOL      0.389529
    186 H84         3.2860    4.9450    2.2430 ho        1 MOL      0.389529
    187 O29         5.5290    2.6720    3.6390 oh        1 MOL     -0.826858
    188 H85         5.1390    2.0000    4.2060 ho        1 MOL      0.389529
    189 H86         5.2060    3.4970    3.9950 ho        1 MOL      0.389529
@<TRIPOS>BOND
     1    1    2 1   
     2    1    4 1   
     3    1    5 1   
     4    1    6 1   
     5    2    3 2   
     6    2    7 1   
     7    7    8 1   
     8    7   15 1   
     9    8    9 1   
    10    8   11 1   
    11    8   16 1   
    12    9   10 2   
    13    9   19 1   
    14   11   12 1   
    15   11   17 1   
    16   11   18 1   
    17   12   13 1   
    18   12   14 1   
    19   19   20 1   
    20   19   27 1   
    21   20   21 1   
    22   20   23 1   
    23   20   28 1   
    24   21   22 2   
    25   21   38 1   
    26   23   24 1   
    27   23   25 1   
    28   23   29 1   
    29   24   26 1   
    30   24   30 1   
    31   24   31 1   
    32   25   32 1   
    33   25   33 1   
    34   25   34 1   
    35   26   35 1   
    36   26   36 1   
    37   26   37 1   
    38   38   39 1   
    39   38   46 1   
    40   39   40 1   
    41   39   42 1   
    42   39   47 1   
    43   40   41 2   
    44   40   50 1   
    45   42   43 1   
    46   42   48 1   
    47   42   49 1   
    48   43   44 1   
    49   43   45 1   
    50   50   51 1   
    51   50   54 1   
    52   51   52 1   
    53   51   55 1   
    54   51   56 1   
    55   52   53 2   
    56   52   57 1   
    57   57   58 1   
    58   57   65 1   
    59   58   59 1   
    60   58   61 1   
    61   58   66 1   
    62   59   60 2   
    63   59   69 1   
    64   61   62 1   
    65   61   67 1   
    66   61   68 1   
    67   62   63 1   
    68   62   64 1   
    69   69   70 1   
    70   69   73 1   
    71   70   71 1   
    72   70   74 1   
    73   70   75 1   
    74   71   72 2   
    75   71   76 1   
    76   76   77 1   
    77   76   85 1   
    78   77   78 1   
    79   77   80 1   
    80   77   86 1   
    81   78   79 2   
    82   78   93 1   
    83   80   81 1   
    84   80   87 1   
    85   80   88 1   
    86   81   82 1   
    87   81   89 1   
    88   81   90 1   
    89   82   83 1   
    90   82   84 2   
    91   83   91 1   
    92   83   92 1   
    93   93   94 1   
    94   93  100 1   
    95   94   95 1   
    96   94   97 1   
    97   94  101 1   
    98   95   96 2   
    99   95  109 1   
   100   97   98 1   
   101   97   99 1   
   102   97  102 1   
   103   98  103 1   
   104   98  104 1   
   105   98  105 1   
   106   99  106 1   
   107   99  107 1   
   108   99  108 1   
   109  109  110 1   
   110  109  117 1   
   111  110  111 1   
   112  110  113 1   
   113  110  118 1   
   114  111  112 2   
   115  111  123 1   
   116  113  114 1   
   117  113  119 1   
   118  113  120 1   
   119  114  115 1   
   120  114  116 2   
   121  115  121 1   
   122  115  122 1   
   123  123  124 1   
   124  123  135 1   
   125  124  125 1   
   126  124  127 1   
   127  124  136 1   
   128  125  126 2   
   129  125  144 1   
   130  127  128 1   
   131  127  137 1   
   132  127  138 1   
   133  128  129 ar  
   134  128  130 ar  
   135  129  131 ar  
   136  129  139 1   
   137  130  132 ar  
   138  130  140 1   
   139  131  133 ar  
   140  131  141 1   
   141  132  133 ar  
   142  132  142 1   
   143  133  134 1   
   144  134  143 1   
   145  144  145 1   
   146  144  153 1   
   147  145  146 1   
   148  145  148 1   
   149  145  154 1   
   150  146  147 2   
   151  146  159 1   
   152  148  149 1   
   153  148  155 1   
   154  148  156 1   
   155  149  150 1   
   156  149  157 1   
   157  149  158 1   
   158  150  151 1   
   159  150  152 1   
   160  159  160 1   
   161  159  168 1   
   162  160  161 1   
   163  160  163 1   
   164  160  169 1   
   165  161  162 2   
   166  161  174 1   
   167  163  164 1   
   168  163  170 1   
   169  163  171 1   
   170  164  165 1   
   171  164  172 1   
   172  164  173 1   
   173  165  166 1   
   174  165  167 1   
   175  174  175 1   
   176  174  179 1   
   177  175  176 1   
   178  175  177 1   
   179  175  178 1   
   180  181  182 1   
   181  181  183 1   
   182  184  185 1   
   183  184  186 1   
   184  187  188 1   
   185  187  189 1   
@<TRIPOS>SUBSTRUCTURE
     1 MOL         1 TEMP              0 ****  ****    0 ROOT
