@<TRIPOS>MOLECULE
MOL
  192   187     1     0     0
SMALL
resp


@<TRIPOS>ATOM
      1 C1         11.8090    6.6800   -1.4980 c3        1 MOL     -0.491670
      2 C2         11.7260    5.2020   -1.0350 c         1 MOL      0.692545
      3 O1         12.3770    4.3400   -1.6070 o         1 MOL     -0.596899
      4 H1         11.4590    7.3320   -0.6980 hc        1 MOL      0.131882
      5 H2         12.8420    6.9270   -1.7410 hc        1 MOL      0.131882
      6 H3         11.1830    6.8200   -2.3790 hc        1 MOL      0.131882
      7 N1         10.8110    4.8740   -0.0770 n         1 MOL     -0.310899
      8 C3         10.7810    3.4770    0.4210 c3        1 MOL     -0.165676
      9 C4          9.6030    2.6820   -0.2140 c         1 MOL      0.431180
     10 O2          8.4470    3.0320    0.0680 o         1 MOL     -0.583673
     11 C5         10.5790    3.5210    1.9640 c3        1 MOL     -0.048156
     12 C6          9.5890    4.5850    2.5230 c         1 MOL      0.810206
     13 O3          8.8150    5.2910    1.8380 o         1 MOL     -0.704232
     14 O4          9.5480    4.6010    3.7710 o         1 MOL     -0.704232
     15 H4         10.1590    5.5210    0.3480 hn        1 MOL      0.055776
     16 H5         11.7150    2.9410    0.3000 h1        1 MOL      0.115845
     17 H6         11.4950    3.8930    2.4320 hc        1 MOL      0.052190
     18 H7         10.3890    2.5120    2.3270 hc        1 MOL      0.052190
     19 N2          9.8290    1.5370   -0.8670 n         1 MOL     -0.352703
     20 C7          8.7300    0.6530   -1.4150 c3        1 MOL     -0.104753
     21 C8          8.0110    0.1650   -0.1580 c         1 MOL      0.960363
     22 O5          8.5480   -0.4830    0.7400 o         1 MOL     -0.613230
     23 C9          9.2380   -0.4740   -2.2940 c3        1 MOL     -0.385162
     24 C10         8.0810   -1.3270   -2.8570 c3        1 MOL      0.239309
     25 C11         8.5900   -2.3610   -3.8560 c3        1 MOL     -0.085010
     26 C12         7.2630   -3.0680   -4.3280 c3        1 MOL      0.091507
     27 N3          7.4700   -4.4130   -4.9600 n4        1 MOL     -0.313395
     28 H8         10.7570    1.2070   -1.0720 hn        1 MOL      0.301785
     29 H9          7.9910    1.2420   -1.9620 h1        1 MOL      0.152507
     30 H10         9.9800   -1.1090   -1.8180 hc        1 MOL      0.122780
     31 H11         9.5960   -0.0040   -3.2100 hc        1 MOL      0.122780
     32 H12         7.3220   -0.7680   -3.4020 hc        1 MOL     -0.013246
     33 H13         7.5760   -1.8680   -2.0620 hc        1 MOL     -0.013246
     34 H14         9.2560   -3.0200   -3.3000 hc        1 MOL      0.036870
     35 H15         9.0130   -1.8510   -4.7190 hc        1 MOL      0.036870
     36 H16         6.8300   -2.3140   -4.9930 hx        1 MOL      0.063624
     37 H17         6.5780   -3.2220   -3.5070 hx        1 MOL      0.063624
     38 H18         6.6490   -4.8260   -5.3880 hn        1 MOL      0.281843
     39 H19         8.2160   -4.4360   -5.6450 hn        1 MOL      0.281843
     40 H20         7.7650   -5.0940   -4.2630 hn        1 MOL      0.281843
     41 N4          6.6510    0.3200   -0.1380 n         1 MOL     -0.784038
     42 C13         5.6830   -0.2060    0.8700 c3        1 MOL      0.245202
     43 C14         4.3030   -0.3960    0.2450 c         1 MOL      0.421971
     44 O6          3.9780    0.0730   -0.8140 o         1 MOL     -0.544078
     45 C15         5.6890    0.7780    2.0460 c3        1 MOL     -0.030648
     46 C16         5.8210    2.2450    1.6670 c         1 MOL      0.620011
     47 O7          6.7210    2.9810    2.1590 o         1 MOL     -0.698840
     48 O8          4.9520    2.7350    0.9250 o         1 MOL     -0.698840
     49 H21         6.2550    0.7200   -0.9760 hn        1 MOL      0.289295
     50 H22         5.9100   -1.1750    1.3130 h1        1 MOL      0.055668
     51 H23         6.4820    0.5070    2.7510 hc        1 MOL      0.027115
     52 H24         4.6950    0.6180    2.4490 hc        1 MOL      0.027115
     53 N5          3.3910   -1.2170    0.8560 n         1 MOL     -0.271965
     54 C17         3.6040   -2.0830    2.0080 c3        1 MOL     -0.087477
     55 C18         3.9600   -3.5150    1.6930 c         1 MOL      0.548902
     56 O9          4.4240   -3.7720    0.6070 o         1 MOL     -0.611302
     57 H25         2.4950   -1.1620    0.3970 hn        1 MOL      0.241529
     58 H26         2.6160   -2.2690    2.4300 h1        1 MOL      0.032890
     59 H27         4.3720   -1.7550    2.7010 h1        1 MOL      0.032890
     60 N6          3.8470   -4.3680    2.6770 n         1 MOL     -0.156516
     61 C19         4.2130   -5.8090    2.6390 c3        1 MOL     -0.146741
     62 C20         3.0820   -6.6120    1.9350 c         1 MOL      0.460420
     63 O10         3.2850   -7.6290    1.3000 o         1 MOL     -0.518852
     64 C21         4.5480   -6.2770    4.0690 c3        1 MOL     -0.097981
     65 C22         3.4320   -6.2010    5.1080 c         1 MOL      0.688305
     66 O11         2.7800   -5.1290    5.2220 o         1 MOL     -0.666833
     67 O12         3.2930   -7.1770    5.8500 o         1 MOL     -0.666833
     68 H28         3.6430   -4.0620    3.6170 hn        1 MOL      0.141459
     69 H29         5.1240   -5.9410    2.0670 h1        1 MOL      0.082040
     70 H30         5.3320   -5.6450    4.4790 hc        1 MOL      0.046285
     71 H31         4.8760   -7.3060    3.9290 hc        1 MOL      0.046285
     72 N7          1.8430   -6.2100    2.2050 n         1 MOL     -0.190287
     73 C23         0.6740   -6.6800    1.5270 c3        1 MOL     -0.186854
     74 C24         0.2280   -5.9160    0.2620 c         1 MOL      0.630996
     75 O13        -0.6150   -6.5470   -0.4050 o         1 MOL     -0.559212
     76 H32         1.7960   -5.3090    2.6540 hn        1 MOL      0.159892
     77 H33        -0.1340   -6.5660    2.2510 h1        1 MOL      0.118855
     78 H34         0.8050   -7.7510    1.3460 h1        1 MOL      0.118855
     79 N8          0.7430   -4.6610   -0.0270 n         1 MOL     -0.550252
     80 C25         0.4920   -3.8430   -1.3100 c3        1 MOL     -0.017595
     81 C26         0.1540   -2.4070   -1.0560 c         1 MOL      0.599022
     82 O14         0.8990   -1.7840   -0.2950 o         1 MOL     -0.486876
     83 C27         1.7730   -3.9310   -2.2150 c3        1 MOL      0.273596
     84 C28         1.9990   -5.3320   -2.8860 c3        1 MOL     -0.319165
     85 O15         1.6910   -3.0910   -3.3090 oh        1 MOL     -0.613505
     86 H35         1.3210   -4.2130    0.6710 hn        1 MOL      0.319901
     87 H36        -0.3540   -4.3410   -1.7680 h1        1 MOL      0.079696
     88 H37         2.6630   -3.5290   -1.7330 h1        1 MOL      0.053824
     89 H38         2.0600   -3.5870   -4.0490 ho        1 MOL      0.369961
     90 H39         2.8370   -5.3740   -3.5800 hc        1 MOL      0.091013
     91 H40         2.1420   -5.9620   -2.0100 hc        1 MOL      0.091013
     92 H41         1.0860   -5.6230   -3.4150 hc        1 MOL      0.091013
     93 N9         -0.9290   -1.8880   -1.5820 n         1 MOL     -0.418960
     94 C29        -1.3530   -0.4670   -1.5250 c3        1 MOL     -0.031641
     95 C30        -2.6840   -0.3500   -0.7690 c         1 MOL      0.532087
     96 O16        -2.9420    0.6770   -0.1420 o         1 MOL     -0.538246
     97 C31        -1.4860    0.1650   -2.8920 c3        1 MOL      0.154401
     98 C32        -0.1790    0.0340   -3.7770 c3        1 MOL      0.048789
     99 C33        -1.8300    1.6590   -2.8370 c3        1 MOL     -0.283453
    100 C34         1.0940    0.7460   -3.2850 c3        1 MOL      0.012089
    101 H42        -1.3300   -2.4620   -2.3000 hn        1 MOL      0.272818
    102 H43        -0.5600    0.0440   -0.9940 h1        1 MOL      0.095365
    103 H44        -2.2840   -0.3850   -3.3910 hc        1 MOL     -0.015538
    104 H45        -0.4650    0.3320   -4.7800 hc        1 MOL     -0.034433
    105 H46         0.0020   -1.0320   -3.9070 hc        1 MOL     -0.034433
    106 H47        -0.9720    2.2670   -2.5440 hc        1 MOL      0.071547
    107 H48        -2.2500    1.9330   -3.8060 hc        1 MOL      0.071547
    108 H49        -2.6870    1.8650   -2.2010 hc        1 MOL      0.071547
    109 H50         1.3340    0.5450   -2.2460 hc        1 MOL     -0.002956
    110 H51         1.9440    0.3880   -3.8730 hc        1 MOL     -0.002956
    111 H52         1.0200    1.8160   -3.4810 hc        1 MOL     -0.002956
    112 N10        -3.5720   -1.3380   -0.8670 n         1 MOL     -0.304322
    113 C35        -4.8500   -1.5110   -0.1380 c3        1 MOL     -0.099825
    114 C36        -5.9810   -2.1060   -1.0880 c         1 MOL      0.578012
    115 O17        -5.5500   -2.8390   -1.9410 o         1 MOL     -0.499325
    116 C37        -4.6240   -2.3830    1.1450 c3        1 MOL      0.416989
    117 C38        -3.9430   -3.7140    0.8310 c3        1 MOL     -0.135003
    118 O18        -4.0070   -1.5820    2.2990 oh        1 MOL     -0.650296
    119 H53        -3.2270   -2.1280   -1.4070 hn        1 MOL      0.192761
    120 H54        -5.0960   -0.5180    0.2500 h1        1 MOL      0.071104
    121 H55        -5.5840   -2.7100    1.5500 h1        1 MOL     -0.052214
    122 H56        -4.5260   -0.8590    2.6730 ho        1 MOL      0.403372
    123 H57        -2.8900   -3.6130    0.5350 hc        1 MOL      0.044305
    124 H58        -3.9980   -4.3330    1.7310 hc        1 MOL      0.044305
    125 H59        -4.5220   -4.2260    0.0720 hc        1 MOL      0.044305
    126 N11        -7.2910   -1.7530   -0.8910 n         1 MOL     -0.495191
    127 C39        -8.3620   -2.0290   -1.9280 c3        1 MOL     -0.040758
    128 C40        -9.3600   -0.8950   -2.0660 c         1 MOL      0.627467
    129 O19        -9.8140   -0.6250   -3.2280 o         1 MOL     -0.551382
    130 C41        -9.1490   -3.2770   -1.4870 c3        1 MOL      0.344594
    131 C42       -10.3090   -3.7060   -2.3450 c3        1 MOL     -0.352359
    132 O20        -9.5620   -3.0170   -0.1810 oh        1 MOL     -0.647989
    133 H60        -7.5110   -1.0700   -0.1730 hn        1 MOL      0.262868
    134 H61        -8.0260   -2.2980   -2.9200 h1        1 MOL      0.104528
    135 H62        -8.5240   -4.1650   -1.4600 h1        1 MOL      0.039278
    136 H63       -10.2030   -3.6780    0.0780 ho        1 MOL      0.389142
    137 H64       -11.1250   -3.0470   -2.0530 hc        1 MOL      0.094506
    138 H65       -10.0980   -3.6160   -3.4080 hc        1 MOL      0.094506
    139 H66       -10.6520   -4.7130   -2.1080 hc        1 MOL      0.094506
    140 N12        -9.6810   -0.2030   -0.9610 n         1 MOL     -0.512997
    141 C43       -10.5260    0.9600   -0.9840 c3        1 MOL      0.039545
    142 C44       -10.0990    2.0190    0.0260 c         1 MOL      0.573486
    143 O21        -9.7940    1.6200    1.1470 o         1 MOL     -0.531858
    144 C45       -11.9760    0.5430   -0.9250 c3        1 MOL     -0.116996
    145 C46       -12.5670    0.0190    0.3540 c3        1 MOL      0.074443
    146 C47       -12.0920   -1.2760    0.9960 c3        1 MOL      0.134411
    147 C48       -12.9640   -1.6770    2.2230 c3        1 MOL     -0.166170
    148 N13       -14.3950   -1.9050    1.8980 n4        1 MOL     -0.307196
    149 H67        -9.3530   -0.4740   -0.0490 hn        1 MOL      0.340094
    150 H68       -10.4090    1.4620   -1.9420 h1        1 MOL      0.079017
    151 H69       -12.2820   -0.1780   -1.6760 hc        1 MOL      0.036721
    152 H70       -12.4450    1.5210   -1.0450 hc        1 MOL      0.036721
    153 H71       -13.6320   -0.1270    0.1540 hc        1 MOL     -0.005402
    154 H72       -12.4530    0.7860    1.1270 hc        1 MOL     -0.005402
    155 H73       -11.0590   -1.1220    1.3080 hc        1 MOL     -0.006494
    156 H74       -12.1440   -2.1080    0.3030 hc        1 MOL     -0.006494
    157 H75       -12.8720   -0.9540    3.0310 hx        1 MOL      0.132807
    158 H76       -12.4260   -2.5220    2.6410 hx        1 MOL      0.132807
    159 H77       -14.8720   -1.0220    1.7210 hn        1 MOL      0.270851
    160 H78       -14.4720   -2.5970    1.1630 hn        1 MOL      0.270851
    161 H79       -14.7750   -2.3180    2.7420 hn        1 MOL      0.270851
    162 N14       -10.1410    3.3070   -0.2940 n         1 MOL     -0.567796
    163 C49       -10.0040    4.3760    0.7130 c3        1 MOL      0.296598
    164 C50        -8.5460    4.4940    1.2800 c         1 MOL      0.329078
    165 O22        -8.3240    4.5490    2.4810 o         1 MOL     -0.504918
    166 C51       -10.6030    5.6900    0.1800 c3        1 MOL     -0.132972
    167 C52       -10.7070    6.7020    1.3480 c3        1 MOL     -0.321984
    168 C53       -11.5520    8.0240    1.1540 c         1 MOL      0.702718
    169 O23       -12.0740    8.6010    2.1210 o         1 MOL     -0.632240
    170 O24       -11.6750    8.5390   -0.0090 o         1 MOL     -0.632240
    171 H80       -10.4730    3.5460   -1.2190 hn        1 MOL      0.310360
    172 H81       -10.5750    4.0380    1.5660 h1        1 MOL      0.046200
    173 H82       -11.5610    5.5560   -0.3360 hc        1 MOL      0.057979
    174 H83       -10.0270    6.1290   -0.6290 hc        1 MOL      0.057979
    175 H84        -9.6740    6.9940    1.5530 hc        1 MOL      0.100469
    176 H85       -11.0300    6.1680    2.2400 hc        1 MOL      0.100469
    177 N15        -7.4770    4.5300    0.4700 n         1 MOL     -0.319027
    178 C54        -7.3460    4.9000   -0.9750 c3        1 MOL     -0.003107
    179 H86        -6.9140    4.0640   -1.5260 h1        1 MOL      0.044256
    180 H87        -8.3300    5.1330   -1.3810 h1        1 MOL      0.044256
    181 H88        -6.6980    5.7710   -1.0700 h1        1 MOL      0.044256
    182 H89        -6.5880    4.4880    0.9460 hn        1 MOL      0.290767
    183 Ca1         6.6960    4.8350    0.2860 Ca        1 MOL      1.782847
    184 O25         5.7870    5.7700    2.7250 oh        1 MOL     -0.918832
    185 H90         6.3290    5.8340    3.5130 ho        1 MOL      0.448196
    186 H91         4.8980    5.6470    3.0600 ho        1 MOL      0.448196
    187 O26         6.2620    3.5180   -2.3910 oh        1 MOL     -0.918832
    188 H92         5.3770    3.3040   -2.6910 ho        1 MOL      0.448196
    189 H93         6.6660    3.9420   -3.1490 ho        1 MOL      0.448196
    190 O27         4.1240    5.7470   -0.2730 oh        1 MOL     -0.918832
    191 H94         3.5200    6.4490   -0.0250 ho        1 MOL      0.448196
    192 H95         3.5540    5.0170   -0.5080 ho        1 MOL      0.448196
@<TRIPOS>BOND
     1    1    2 1   
     2    1    4 1   
     3    1    5 1   
     4    1    6 1   
     5    2    3 2   
     6    2    7 1   
     7    7    8 1   
     8    7   15 1   
     9    8    9 1   
    10    8   11 1   
    11    8   16 1   
    12    9   10 2   
    13    9   19 1   
    14   11   12 1   
    15   11   17 1   
    16   11   18 1   
    17   12   13 1   
    18   12   14 1   
    19   19   20 1   
    20   19   28 1   
    21   20   21 1   
    22   20   23 1   
    23   20   29 1   
    24   21   22 2   
    25   21   41 1   
    26   23   24 1   
    27   23   30 1   
    28   23   31 1   
    29   24   25 1   
    30   24   32 1   
    31   24   33 1   
    32   25   26 1   
    33   25   34 1   
    34   25   35 1   
    35   26   27 1   
    36   26   36 1   
    37   26   37 1   
    38   27   38 1   
    39   27   39 1   
    40   27   40 1   
    41   41   42 1   
    42   41   49 1   
    43   42   43 1   
    44   42   45 1   
    45   42   50 1   
    46   43   44 2   
    47   43   53 1   
    48   45   46 1   
    49   45   51 1   
    50   45   52 1   
    51   46   47 1   
    52   46   48 1   
    53   53   54 1   
    54   53   57 1   
    55   54   55 1   
    56   54   58 1   
    57   54   59 1   
    58   55   56 2   
    59   55   60 1   
    60   60   61 1   
    61   60   68 1   
    62   61   62 1   
    63   61   64 1   
    64   61   69 1   
    65   62   63 2   
    66   62   72 1   
    67   64   65 1   
    68   64   70 1   
    69   64   71 1   
    70   65   66 1   
    71   65   67 1   
    72   72   73 1   
    73   72   76 1   
    74   73   74 1   
    75   73   77 1   
    76   73   78 1   
    77   74   75 2   
    78   74   79 1   
    79   79   80 1   
    80   79   86 1   
    81   80   81 1   
    82   80   83 1   
    83   80   87 1   
    84   81   82 2   
    85   81   93 1   
    86   83   84 1   
    87   83   85 1   
    88   83   88 1   
    89   84   90 1   
    90   84   91 1   
    91   84   92 1   
    92   85   89 1   
    93   93   94 1   
    94   93  101 1   
    95   94   95 1   
    96   94   97 1   
    97   94  102 1   
    98   95   96 2   
    99   95  112 1   
   100   97   98 1   
   101   97   99 1   
   102   97  103 1   
   103   98  100 1   
   104   98  104 1   
   105   98  105 1   
   106   99  106 1   
   107   99  107 1   
   108   99  108 1   
   109  100  109 1   
   110  100  110 1   
   111  100  111 1   
   112  112  113 1   
   113  112  119 1   
   114  113  114 1   
   115  113  116 1   
   116  113  120 1   
   117  114  115 2   
   118  114  126 1   
   119  116  117 1   
   120  116  118 1   
   121  116  121 1   
   122  117  123 1   
   123  117  124 1   
   124  117  125 1   
   125  118  122 1   
   126  126  127 1   
   127  126  133 1   
   128  127  128 1   
   129  127  130 1   
   130  127  134 1   
   131  128  129 2   
   132  128  140 1   
   133  130  131 1   
   134  130  132 1   
   135  130  135 1   
   136  131  137 1   
   137  131  138 1   
   138  131  139 1   
   139  132  136 1   
   140  140  141 1   
   141  140  149 1   
   142  141  142 1   
   143  141  144 1   
   144  141  150 1   
   145  142  143 2   
   146  142  162 1   
   147  144  145 1   
   148  144  151 1   
   149  144  152 1   
   150  145  146 1   
   151  145  153 1   
   152  145  154 1   
   153  146  147 1   
   154  146  155 1   
   155  146  156 1   
   156  147  148 1   
   157  147  157 1   
   158  147  158 1   
   159  148  159 1   
   160  148  160 1   
   161  148  161 1   
   162  162  163 1   
   163  162  171 1   
   164  163  164 1   
   165  163  166 1   
   166  163  172 1   
   167  164  165 2   
   168  164  177 1   
   169  166  167 1   
   170  166  173 1   
   171  166  174 1   
   172  167  168 1   
   173  167  175 1   
   174  167  176 1   
   175  168  169 1   
   176  168  170 1   
   177  177  178 1   
   178  177  182 1   
   179  178  179 1   
   180  178  180 1   
   181  178  181 1   
   182  184  185 1   
   183  184  186 1   
   184  187  188 1   
   185  187  189 1   
   186  190  191 1   
   187  190  192 1   
@<TRIPOS>SUBSTRUCTURE
     1 MOL         1 TEMP              0 ****  ****    0 ROOT
