@<TRIPOS>MOLECULE
MOL
  195   189     1     0     0
SMALL
resp


@<TRIPOS>ATOM
      1 C1          6.2770   -4.0940   -4.7260 c3        1 MOL     -0.353378
      2 C2          5.7510   -3.1330   -3.6020 c         1 MOL      0.728205
      3 O1          5.7270   -3.5740   -2.4480 o         1 MOL     -0.584356
      4 H1          6.7390   -4.9680   -4.2680 hc        1 MOL      0.085199
      5 H2          5.4430   -4.4110   -5.3530 hc        1 MOL      0.085199
      6 H3          7.0130   -3.5720   -5.3360 hc        1 MOL      0.085199
      7 N1          5.3040   -1.9190   -3.9390 n         1 MOL     -0.492197
      8 C3          4.9070   -0.8400   -2.9680 c3        1 MOL      0.232284
      9 C4          3.4740   -0.9230   -2.4030 c         1 MOL     -0.007470
     10 O2          3.2140   -0.1260   -1.4650 o         1 MOL     -0.112232
     11 C5          5.2410    0.5160   -3.5730 c3        1 MOL     -0.025851
     12 C6          6.7100    0.6800   -3.8770 c         1 MOL      0.685119
     13 O3          7.4100    1.2700   -2.9910 o         1 MOL     -0.691404
     14 O4          7.1620    0.3990   -4.9770 o         1 MOL     -0.691404
     15 H4          5.3030   -1.6870   -4.9120 hn        1 MOL      0.242365
     16 H5          5.5050   -1.0310   -2.0750 h1        1 MOL      0.052941
     17 H6          4.9770    1.3850   -2.9620 hc        1 MOL     -0.020484
     18 H7          4.6850    0.6380   -4.4980 hc        1 MOL     -0.020484
     19 N2          2.6010   -1.8280   -2.8430 n         1 MOL     -0.161514
     20 C7          1.2540   -1.8770   -2.3700 c3        1 MOL      0.049795
     21 C8          0.9260   -2.7150   -1.1620 c         1 MOL      0.322289
     22 O5          1.4060   -3.8160   -1.0300 o         1 MOL     -0.477700
     23 C9          0.4010   -2.3010   -3.5320 c3        1 MOL     -0.189054
     24 C10         0.4340   -1.4110   -4.7580 c3        1 MOL      0.078293
     25 C11        -0.9030   -1.5630   -5.5650 c3        1 MOL     -0.022120
     26 C12        -1.3730   -2.8750   -6.0210 c3        1 MOL      0.075716
     27 N3         -0.2820   -3.5390   -6.7310 n4        1 MOL     -0.410085
     28 H8          2.9720   -2.5760   -3.4240 hn        1 MOL      0.192021
     29 H9          0.9630   -0.8540   -2.1230 h1        1 MOL      0.094565
     30 H10        -0.6450   -2.4150   -3.2640 hc        1 MOL      0.043723
     31 H11         0.7630   -3.2940   -3.7880 hc        1 MOL      0.043723
     32 H12         1.2920   -1.6290   -5.4020 hc        1 MOL     -0.009874
     33 H13         0.5890   -0.4230   -4.3320 hc        1 MOL     -0.009874
     34 H14        -0.7940   -0.8740   -6.4000 hc        1 MOL      0.040091
     35 H15        -1.6830   -1.2140   -4.8890 hc        1 MOL      0.040091
     36 H16        -2.2570   -2.7560   -6.6340 hx        1 MOL      0.087546
     37 H17        -1.6890   -3.5460   -5.2120 hx        1 MOL      0.087546
     38 H18         0.5340   -3.5660   -6.1320 hn        1 MOL      0.331650
     39 H19        -0.5120   -4.5270   -6.7750 hn        1 MOL      0.331650
     40 H20        -0.0960   -3.1760   -7.6600 hn        1 MOL      0.331650
     41 N4          0.0180   -2.4160   -0.2650 n         1 MOL     -0.249563
     42 C13        -0.7240   -1.1290   -0.0380 c3        1 MOL      0.012538
     43 C14        -1.3580   -0.4470   -1.3610 c         1 MOL      0.537721
     44 O6         -0.7350    0.4530   -1.9440 o         1 MOL     -0.505554
     45 C15         0.0870   -0.2220    0.8800 c3        1 MOL     -0.448113
     46 C16         0.2530   -0.8000    2.2880 c         1 MOL      0.736649
     47 O7         -0.8200   -1.2050    2.8690 o         1 MOL     -0.715087
     48 O8          1.3950   -1.0340    2.7590 o         1 MOL     -0.715087
     49 H21         0.0580   -3.1670    0.4190 hn        1 MOL      0.173450
     50 H22        -1.5460   -1.4320    0.6100 h1        1 MOL     -0.021486
     51 H23        -0.4580    0.7180    1.0100 hc        1 MOL      0.195623
     52 H24         1.0650   -0.0300    0.4170 hc        1 MOL      0.195623
     53 N5         -2.5540   -0.8980   -1.7690 n         1 MOL     -0.393277
     54 C17        -3.4520   -1.8950   -1.1200 c3        1 MOL      0.189008
     55 C18        -4.5990   -2.3280   -2.0800 c         1 MOL      0.374719
     56 O9         -4.6280   -1.9050   -3.2140 o         1 MOL     -0.524263
     57 H25        -2.9350   -0.2860   -2.4870 hn        1 MOL      0.295376
     58 H26        -3.8650   -1.5200   -0.1890 h1        1 MOL      0.042073
     59 H27        -2.8310   -2.7810   -0.9850 h1        1 MOL      0.042073
     60 N6         -5.4740   -3.2380   -1.7030 n         1 MOL     -0.356111
     61 C19        -5.7310   -3.7680   -0.3900 c3        1 MOL      0.072371
     62 C20        -6.7790   -2.9130    0.4640 c         1 MOL      0.482633
     63 O10        -6.6020   -2.8190    1.6800 o         1 MOL     -0.564817
     64 C21        -6.1180   -5.2670   -0.5180 c3        1 MOL     -0.248110
     65 C22        -7.3410   -5.6380   -1.3150 c         1 MOL      0.764375
     66 O11        -8.0240   -4.7930   -1.8570 o         1 MOL     -0.720400
     67 O12        -7.6800   -6.8410   -1.3360 o         1 MOL     -0.720400
     68 H28        -6.1210   -3.5990   -2.3980 hn        1 MOL      0.258507
     69 H29        -4.7850   -3.7800    0.1510 h1        1 MOL     -0.001454
     70 H30        -6.2970   -5.6960    0.4670 hc        1 MOL      0.056173
     71 H31        -5.2770   -5.7820   -0.9620 hc        1 MOL      0.056173
     72 N7         -7.7540   -2.2630   -0.1420 n         1 MOL     -0.221526
     73 C23        -8.6740   -1.3600    0.5570 c3        1 MOL     -0.153281
     74 C24        -8.1350    0.0310    0.9200 c         1 MOL      0.646883
     75 O13        -8.7540    1.0240    0.5950 o         1 MOL     -0.566264
     76 H32        -7.7920   -2.3480   -1.1480 hn        1 MOL      0.260644
     77 H33        -9.0110   -1.7950    1.5010 h1        1 MOL      0.106582
     78 H34        -9.5730   -1.2980   -0.0610 h1        1 MOL      0.106582
     79 N8         -6.9170    0.1630    1.4910 n         1 MOL     -0.678400
     80 C25        -6.1540    1.4250    1.7990 c3        1 MOL      0.425342
     81 C26        -5.5640    2.0130    0.5290 c         1 MOL      0.516027
     82 O14        -5.1400    1.2610   -0.3730 o         1 MOL     -0.560028
     83 C27        -4.8310    1.1220    2.5840 c3        1 MOL      0.054162
     84 C28        -5.1190    0.8120    4.0080 c3        1 MOL     -0.460366
     85 O15        -4.0010    2.2830    2.6830 oh        1 MOL     -0.559499
     86 H35        -6.4560   -0.7100    1.7010 hn        1 MOL      0.293325
     87 H36        -6.8140    2.1600    2.2530 h1        1 MOL      0.019351
     88 H37        -4.3070    0.3630    2.0060 h1        1 MOL      0.120329
     89 H38        -3.1500    2.0010    3.0400 ho        1 MOL      0.394307
     90 H39        -5.7920   -0.0410    4.0190 hc        1 MOL      0.128217
     91 H40        -4.1600    0.4550    4.3650 hc        1 MOL      0.128217
     92 H41        -5.4910    1.7270    4.4740 hc        1 MOL      0.128217
     93 N9         -5.4970    3.3350    0.4390 n         1 MOL     -0.421056
     94 C29        -5.2080    4.0860   -0.7580 c3        1 MOL     -0.072290
     95 C30        -3.6540    4.2260   -0.8990 c         1 MOL      0.492346
     96 O16        -3.1300    4.4030   -2.0250 o         1 MOL     -0.548753
     97 C31        -6.1030    5.4200   -0.7120 c3        1 MOL      0.158088
     98 C32        -7.6080    5.2320   -0.2630 c3        1 MOL     -0.205314
     99 C33        -6.0200    6.1740   -2.0140 c3        1 MOL     -0.033284
    100 C34        -8.4640    4.3560   -1.2370 c3        1 MOL     -0.058296
    101 H42        -5.7660    3.8540    1.2560 hn        1 MOL      0.238112
    102 H43        -5.5420    3.4480   -1.5790 h1        1 MOL      0.129922
    103 H44        -5.6500    6.1570   -0.0540 hc        1 MOL     -0.009282
    104 H45        -8.0810    6.2140   -0.1630 hc        1 MOL      0.060924
    105 H46        -7.7600    4.7120    0.6860 hc        1 MOL      0.060924
    106 H47        -6.8320    6.8860   -2.1240 hc        1 MOL      0.010865
    107 H48        -5.1200    6.7900   -2.1200 hc        1 MOL      0.010865
    108 H49        -6.0690    5.4810   -2.8620 hc        1 MOL      0.010865
    109 H50        -8.3390    4.7000   -2.2710 hc        1 MOL      0.029498
    110 H51        -8.2480    3.2950   -1.1250 hc        1 MOL      0.029498
    111 H52        -9.5190    4.4280   -1.0060 hc        1 MOL      0.029498
    112 N10        -2.9550    4.1830    0.2110 n         1 MOL     -0.279792
    113 C35        -1.5970    4.7170    0.3130 c3        1 MOL     -0.001288
    114 C36        -0.5070    3.6000    0.3360 c         1 MOL      0.292404
    115 O17        -0.0630    3.2160    1.4320 o         1 MOL     -0.495700
    116 C37        -1.4540    5.7160    1.4470 c3        1 MOL      0.406734
    117 C38        -1.5400    5.2100    2.8960 c3        1 MOL     -0.250195
    118 O18        -2.4300    6.6670    1.2560 oh        1 MOL     -0.639359
    119 H53        -3.3860    3.9530    1.0980 hn        1 MOL      0.220931
    120 H54        -1.3690    5.2650   -0.5950 h1        1 MOL      0.067910
    121 H55        -0.4860    6.2090    1.3760 h1        1 MOL     -0.015523
    122 H56        -2.2670    7.4180    1.8310 ho        1 MOL      0.385338
    123 H57        -1.9140    5.9290    3.6260 hc        1 MOL      0.055614
    124 H58        -2.1680    4.3310    2.9850 hc        1 MOL      0.055614
    125 H59        -0.4930    5.0470    3.1760 hc        1 MOL      0.055614
    126 N11         0.1500    3.4650   -0.7740 n         1 MOL     -0.160522
    127 C39         1.4050    2.7710   -1.0140 c3        1 MOL     -0.481019
    128 C40         2.5250    3.1290   -0.0690 c         1 MOL      0.744700
    129 O19         2.6180    4.2400    0.4600 o         1 MOL     -0.540950
    130 C41         1.8530    2.8460   -2.4860 c3        1 MOL      0.647455
    131 C42         2.1680    4.2480   -3.0780 c3        1 MOL     -0.266991
    132 O20         0.8090    2.3230   -3.2180 oh        1 MOL     -0.636539
    133 H60        -0.3700    3.8930   -1.5300 hn        1 MOL      0.258241
    134 H61         1.2050    1.7110   -0.8410 h1        1 MOL      0.094182
    135 H62         2.7550    2.2750   -2.6710 h1        1 MOL     -0.065294
    136 H63         0.4260    1.5840   -2.7310 ho        1 MOL      0.344006
    137 H64         2.6390    4.7990   -2.2600 hc        1 MOL      0.056732
    138 H65         2.7530    4.1030   -3.9780 hc        1 MOL      0.056732
    139 H66         1.3050    4.8520   -3.3870 hc        1 MOL      0.056732
    140 N12         3.5110    2.2240    0.0110 n         1 MOL     -0.586716
    141 C43         4.6720    2.3620    0.8520 c3        1 MOL      0.023990
    142 C44         5.1570    1.1180    1.4880 c         1 MOL      0.625487
    143 O21         5.9420    1.1410    2.4070 o         1 MOL     -0.659495
    144 C45         5.8710    3.1300    0.1640 c3        1 MOL     -0.074776
    145 C46         6.8230    3.7730    1.2010 c3        1 MOL     -0.014224
    146 C47         7.6030    4.7480    0.4950 c3        1 MOL      0.117443
    147 C48         8.5990    5.4780    1.3930 c3        1 MOL     -0.239224
    148 N13         8.0500    6.4690    2.3780 n4        1 MOL     -0.320686
    149 H67         3.4010    1.3540   -0.4890 hn        1 MOL      0.341242
    150 H68         4.4160    2.9000    1.7660 h1        1 MOL      0.064085
    151 H69         5.4110    3.9860   -0.3270 hc        1 MOL      0.028384
    152 H70         6.3560    2.4340   -0.5320 hc        1 MOL      0.028384
    153 H71         7.4870    2.9870    1.5560 hc        1 MOL      0.030524
    154 H72         6.2670    4.2980    1.9780 hc        1 MOL      0.030524
    155 H73         6.9380    5.4760    0.0160 hc        1 MOL      0.036513
    156 H74         8.1610    4.2710   -0.3160 hc        1 MOL      0.036513
    157 H75         9.3360    6.0160    0.7900 hx        1 MOL      0.157312
    158 H76         9.0330    4.7020    2.0400 hx        1 MOL      0.157312
    159 H77         8.7930    6.8830    2.9260 hn        1 MOL      0.313736
    160 H78         7.3740    7.0680    1.9410 hn        1 MOL      0.313736
    161 H79         7.5880    6.0180    3.1500 hn        1 MOL      0.313736
    162 N14         4.6980   -0.0390    1.0480 n         1 MOL      0.022325
    163 C49         5.0240   -1.3340    1.6630 c3        1 MOL     -0.602394
    164 C50         6.6230   -1.7080    1.6730 c         1 MOL      0.729184
    165 O22         7.2730   -1.4030    0.6660 o         1 MOL     -0.533453
    166 C51         4.2730   -2.3960    0.8560 c3        1 MOL      0.277848
    167 C52         4.2390   -3.7890    1.5300 c3        1 MOL     -0.598985
    168 C53         3.9060   -3.7110    2.9560 c         1 MOL      0.920220
    169 O23         4.8430   -3.6270    3.8020 o         1 MOL     -0.792631
    170 O24         2.7630   -3.9000    3.4640 o         1 MOL     -0.792631
    171 H80         4.1030   -0.0370    0.2340 hn        1 MOL     -0.119655
    172 H81         4.7490   -1.3160    2.7160 h1        1 MOL      0.243222
    173 H82         4.7980   -2.5150   -0.1030 hc        1 MOL      0.068256
    174 H83         3.2770   -2.0020    0.7030 hc        1 MOL      0.068256
    175 H84         5.1750   -4.3130    1.3380 hc        1 MOL      0.147234
    176 H85         3.4470   -4.3920    1.0800 hc        1 MOL      0.147234
    177 N15         7.1420   -2.3620    2.7120 n         1 MOL     -0.560658
    178 C54         8.5490   -2.8000    2.7090 c3        1 MOL      0.127628
    179 H86         8.6050   -3.8370    2.3780 h1        1 MOL      0.012783
    180 H87         9.1240   -2.1710    2.0310 h1        1 MOL      0.012783
    181 H88         8.9580   -2.7180    3.7160 h1        1 MOL      0.012783
    182 H89         6.5190   -2.7750    3.4030 hn        1 MOL      0.415498
    183 Ca1         0.3720   -3.1110    4.2100 Ca        1 MOL      1.748092
    184 O25        -1.5750   -2.1860    5.7730 oh        1 MOL     -0.861898
    185 H90        -1.8790   -1.2770    5.6980 ho        1 MOL      0.424300
    186 H91        -2.0490   -2.5370    6.5190 ho        1 MOL      0.424300
    187 O26         0.9630   -1.1390    5.9040 oh        1 MOL     -0.861898
    188 H92         1.6830   -0.6190    6.2590 ho        1 MOL      0.424300
    189 H93         0.2120   -0.9110    6.4500 ho        1 MOL      0.424300
    190 O27         1.2060   -5.6640    4.8400 oh        1 MOL     -0.861898
    191 H94         1.4110   -6.3270    5.5050 ho        1 MOL      0.424300
    192 H95         2.0620   -5.3970    4.4970 ho        1 MOL      0.424300
    193 O28         0.7170   -3.8810    6.7650 oh        1 MOL     -0.861898
    194 H96         0.6490   -4.7800    6.4360 ho        1 MOL      0.424300
    195 H97         0.7060   -3.9610    7.7140 ho        1 MOL      0.424300
@<TRIPOS>BOND
     1    1    2 1   
     2    1    4 1   
     3    1    5 1   
     4    1    6 1   
     5    2    3 2   
     6    2    7 1   
     7    7    8 1   
     8    7   15 1   
     9    8    9 1   
    10    8   11 1   
    11    8   16 1   
    12    9   10 2   
    13    9   19 1   
    14   11   12 1   
    15   11   17 1   
    16   11   18 1   
    17   12   13 1   
    18   12   14 1   
    19   19   20 1   
    20   19   28 1   
    21   20   21 1   
    22   20   23 1   
    23   20   29 1   
    24   21   22 2   
    25   21   41 1   
    26   23   24 1   
    27   23   30 1   
    28   23   31 1   
    29   24   25 1   
    30   24   32 1   
    31   24   33 1   
    32   25   26 1   
    33   25   34 1   
    34   25   35 1   
    35   26   27 1   
    36   26   36 1   
    37   26   37 1   
    38   27   38 1   
    39   27   39 1   
    40   27   40 1   
    41   41   42 1   
    42   41   49 1   
    43   42   43 1   
    44   42   45 1   
    45   42   50 1   
    46   43   44 2   
    47   43   53 1   
    48   45   46 1   
    49   45   51 1   
    50   45   52 1   
    51   46   47 1   
    52   46   48 1   
    53   53   54 1   
    54   53   57 1   
    55   54   55 1   
    56   54   58 1   
    57   54   59 1   
    58   55   56 2   
    59   55   60 1   
    60   60   61 1   
    61   60   68 1   
    62   61   62 1   
    63   61   64 1   
    64   61   69 1   
    65   62   63 2   
    66   62   72 1   
    67   64   65 1   
    68   64   70 1   
    69   64   71 1   
    70   65   66 1   
    71   65   67 1   
    72   72   73 1   
    73   72   76 1   
    74   73   74 1   
    75   73   77 1   
    76   73   78 1   
    77   74   75 2   
    78   74   79 1   
    79   79   80 1   
    80   79   86 1   
    81   80   81 1   
    82   80   83 1   
    83   80   87 1   
    84   81   82 2   
    85   81   93 1   
    86   83   84 1   
    87   83   85 1   
    88   83   88 1   
    89   84   90 1   
    90   84   91 1   
    91   84   92 1   
    92   85   89 1   
    93   93   94 1   
    94   93  101 1   
    95   94   95 1   
    96   94   97 1   
    97   94  102 1   
    98   95   96 2   
    99   95  112 1   
   100   97   98 1   
   101   97   99 1   
   102   97  103 1   
   103   98  100 1   
   104   98  104 1   
   105   98  105 1   
   106   99  106 1   
   107   99  107 1   
   108   99  108 1   
   109  100  109 1   
   110  100  110 1   
   111  100  111 1   
   112  112  113 1   
   113  112  119 1   
   114  113  114 1   
   115  113  116 1   
   116  113  120 1   
   117  114  115 2   
   118  114  126 1   
   119  116  117 1   
   120  116  118 1   
   121  116  121 1   
   122  117  123 1   
   123  117  124 1   
   124  117  125 1   
   125  118  122 1   
   126  126  127 1   
   127  126  133 1   
   128  127  128 1   
   129  127  130 1   
   130  127  134 1   
   131  128  129 2   
   132  128  140 1   
   133  130  131 1   
   134  130  132 1   
   135  130  135 1   
   136  131  137 1   
   137  131  138 1   
   138  131  139 1   
   139  132  136 1   
   140  140  141 1   
   141  140  149 1   
   142  141  142 1   
   143  141  144 1   
   144  141  150 1   
   145  142  143 2   
   146  142  162 1   
   147  144  145 1   
   148  144  151 1   
   149  144  152 1   
   150  145  146 1   
   151  145  153 1   
   152  145  154 1   
   153  146  147 1   
   154  146  155 1   
   155  146  156 1   
   156  147  148 1   
   157  147  157 1   
   158  147  158 1   
   159  148  159 1   
   160  148  160 1   
   161  148  161 1   
   162  162  163 1   
   163  162  171 1   
   164  163  164 1   
   165  163  166 1   
   166  163  172 1   
   167  164  165 2   
   168  164  177 1   
   169  166  167 1   
   170  166  173 1   
   171  166  174 1   
   172  167  168 1   
   173  167  175 1   
   174  167  176 1   
   175  168  169 1   
   176  168  170 1   
   177  177  178 1   
   178  177  182 1   
   179  178  179 1   
   180  178  180 1   
   181  178  181 1   
   182  184  185 1   
   183  184  186 1   
   184  187  188 1   
   185  187  189 1   
   186  190  191 1   
   187  190  192 1   
   188  193  194 1   
   189  193  195 1   
@<TRIPOS>SUBSTRUCTURE
     1 MOL         1 TEMP              0 ****  ****    0 ROOT
