@<TRIPOS>MOLECULE
MOL
  181   177     1     0     0
SMALL
resp


@<TRIPOS>ATOM
      1 C1         11.0770    6.4670   -1.7530 c3        1 MOL     -0.382193
      2 C2         10.1130    5.9290   -0.7020 c         1 MOL      0.744784
      3 O1         10.1700    6.3910    0.4200 o         1 MOL     -0.640669
      4 H1         12.0280    5.9390   -1.6780 hc        1 MOL      0.099229
      5 H2         10.6550    6.3140   -2.7460 hc        1 MOL      0.099229
      6 H3         11.2400    7.5320   -1.5870 hc        1 MOL      0.099229
      7 N1          9.1340    5.0640   -0.8760 n         1 MOL     -0.433570
      8 C3          8.9020    4.1720   -2.0280 c3        1 MOL     -0.249411
      9 C4          8.5850    2.7490   -1.5690 c         1 MOL      0.743572
     10 O2          8.0040    2.5730   -0.4950 o         1 MOL     -0.538291
     11 C5          7.7760    4.7110   -2.8670 c3        1 MOL      0.038823
     12 C6          6.3730    5.1490   -2.2940 c         1 MOL      0.610766
     13 O3          5.6380    5.8260   -2.9940 o         1 MOL     -0.655559
     14 O4          6.1290    4.7950   -1.1070 o         1 MOL     -0.655559
     15 H4          8.6230    4.8590   -0.0270 hn        1 MOL      0.262966
     16 H5          9.8150    4.1150   -2.6260 h1        1 MOL      0.094071
     17 H6          7.7120    4.1120   -3.7680 hc        1 MOL      0.012935
     18 H7          8.1970    5.5810   -3.3760 hc        1 MOL      0.012935
     19 N2          8.7530    1.7830   -2.5130 n         1 MOL     -0.727918
     20 C7          8.0740    0.5100   -2.3350 c3        1 MOL      0.236303
     21 C8          8.5190   -0.2950   -1.0350 c         1 MOL      0.715465
     22 O5          9.6880   -0.2730   -0.6860 o         1 MOL     -0.552944
     23 C9          8.3350   -0.3740   -3.5560 c3        1 MOL     -0.398313
     24 H8          9.2500    1.8880   -3.3910 hn        1 MOL      0.387399
     25 H9          7.0210    0.7490   -2.1620 h1        1 MOL      0.036944
     26 H10         9.4000   -0.5530   -3.7080 hc        1 MOL      0.111270
     27 H11         7.9470   -1.3810   -3.4130 hc        1 MOL      0.111270
     28 H12         8.0480    0.1220   -4.4920 hc        1 MOL      0.111270
     29 N3          7.5670   -1.0470   -0.3920 n         1 MOL     -0.760117
     30 C10         7.7970   -1.7450    0.9140 c3        1 MOL      0.199092
     31 C11         7.2410   -3.1840    0.8300 c         1 MOL      0.539877
     32 O6          6.2840   -3.4310    0.0880 o         1 MOL     -0.471234
     33 C12         7.3640   -1.0770    2.2230 c3        1 MOL     -0.001014
     34 C13         6.9010    0.3790    1.9930 c         1 MOL      0.743852
     35 O7          5.6640    0.6040    1.7380 o         1 MOL     -0.736611
     36 O8          7.6560    1.2950    2.1830 o         1 MOL     -0.736611
     37 H13         6.6840   -1.2620   -0.8190 hn        1 MOL      0.311936
     38 H14         8.8640   -1.9170    1.0430 h1        1 MOL      0.012862
     39 H15         8.2690   -1.0150    2.8310 hc        1 MOL     -0.017081
     40 H16         6.6160   -1.6020    2.8060 hc        1 MOL     -0.017081
     41 N4          7.7640   -4.0890    1.6820 n         1 MOL     -0.433193
     42 C14         7.4830   -5.4470    1.4550 c3        1 MOL     -0.065461
     43 C15         6.0560   -5.9080    1.8020 c         1 MOL      0.494983
     44 O9          5.7130   -6.9120    1.3080 o         1 MOL     -0.498237
     45 H17         8.4970   -3.8510    2.3450 hn        1 MOL      0.282835
     46 H18         8.0870   -6.1820    1.9980 h1        1 MOL      0.080440
     47 H19         7.6560   -5.7240    0.4160 h1        1 MOL      0.080440
     48 N5          5.3180   -5.1740    2.6580 n         1 MOL     -0.265133
     49 C16         3.9220   -5.4010    2.9660 c3        1 MOL     -0.339242
     50 C17         2.9170   -5.0260    1.7620 c         1 MOL      0.717746
     51 O10         1.8040   -5.4440    1.8070 o         1 MOL     -0.557848
     52 C18         3.5970   -4.6910    4.3070 c3        1 MOL     -0.047012
     53 C19         3.4740   -3.2100    4.0360 c         1 MOL      0.411225
     54 N6          2.2770   -2.6710    4.0260 n         1 MOL     -0.657164
     55 O11         4.5560   -2.5570    4.0350 o         1 MOL     -0.466024
     56 H20         5.7410   -4.3360    3.0320 hn        1 MOL      0.174751
     57 H21         3.8010   -6.4700    3.0830 h1        1 MOL      0.171350
     58 H22         4.2670   -4.8410    5.1580 hc        1 MOL      0.075151
     59 H23         2.7500   -5.2110    4.7520 hc        1 MOL      0.075151
     60 H24         1.4540   -3.2280    4.2020 hn        1 MOL      0.354946
     61 H25         2.2380   -1.7420    3.6370 hn        1 MOL      0.354946
     62 N7          3.2510   -4.1200    0.8610 n         1 MOL     -0.471234
     63 C20         2.3790   -3.7340   -0.2490 c3        1 MOL      0.046508
     64 C21         2.2720   -4.8860   -1.3100 c         1 MOL      0.616001
     65 O12         2.9910   -5.9020   -1.1240 o         1 MOL     -0.550114
     66 H26         4.2230   -3.8540    0.9210 hn        1 MOL      0.288200
     67 H27         2.7770   -2.8640   -0.7750 h1        1 MOL      0.032501
     68 H28         1.3840   -3.5110    0.1180 h1        1 MOL      0.032501
     69 N8          1.4660   -4.7650   -2.3110 n         1 MOL     -0.571828
     70 C22         0.7150   -3.5150   -2.6290 c3        1 MOL      0.093243
     71 C23        -0.5590   -3.2460   -1.8650 c         1 MOL      0.459977
     72 O13        -1.1110   -4.1490   -1.3100 o         1 MOL     -0.480700
     73 C24         0.4850   -3.2710   -4.1750 c3        1 MOL      0.540967
     74 C25         1.6880   -2.6300   -4.8720 c3        1 MOL     -0.348108
     75 O14         0.1900   -4.5920   -4.7020 oh        1 MOL     -0.667318
     76 H29         1.3320   -5.5580   -2.9300 hn        1 MOL      0.339383
     77 H30         1.3370   -2.6450   -2.4260 h1        1 MOL      0.015719
     78 H31        -0.3990   -2.6600   -4.3560 h1        1 MOL     -0.036880
     79 H32        -0.7420   -4.7400   -4.9200 ho        1 MOL      0.399386
     80 H33         1.4310   -2.7160   -5.9230 hc        1 MOL      0.076801
     81 H34         1.7640   -1.6440   -4.4090 hc        1 MOL      0.076801
     82 H35         2.5590   -3.2380   -4.6260 hc        1 MOL      0.076801
     83 N9         -0.9470   -1.9830   -1.8050 n         1 MOL     -0.557379
     84 C26        -2.2010   -1.4670   -1.2310 c3        1 MOL      0.145623
     85 C27        -2.8360   -0.6020   -2.3940 c         1 MOL      0.616496
     86 O15        -2.0870   -0.0280   -3.1330 o         1 MOL     -0.600594
     87 C28        -1.7870   -0.5630   -0.0030 c3        1 MOL     -0.071217
     88 C29        -1.1850   -1.3560    1.1800 c3        1 MOL      0.344622
     89 C30        -3.0040    0.3320    0.4890 c3        1 MOL     -0.318667
     90 C31        -2.0410   -2.4110    1.9400 c3        1 MOL     -0.206411
     91 H36        -0.3580   -1.3140   -2.2700 hn        1 MOL      0.248046
     92 H37        -2.8310   -2.3080   -0.9500 h1        1 MOL      0.136190
     93 H38        -0.9970    0.0710   -0.3950 hc        1 MOL      0.049820
     94 H39        -0.8820   -0.6140    1.9160 hc        1 MOL     -0.103209
     95 H40        -0.1890   -1.6160    0.8370 hc        1 MOL     -0.103209
     96 H41        -2.6780    1.0290    1.2530 hc        1 MOL      0.091287
     97 H42        -3.2760    0.8760   -0.4180 hc        1 MOL      0.091287
     98 H43        -3.8790   -0.2960    0.7100 hc        1 MOL      0.091287
     99 H44        -2.3610   -3.1580    1.2160 hc        1 MOL      0.046023
    100 H45        -1.4160   -2.7610    2.7670 hc        1 MOL      0.046023
    101 H46        -2.8970   -1.9410    2.4180 hc        1 MOL      0.046023
    102 N10        -4.1310   -0.5080   -2.5740 n         1 MOL     -0.632449
    103 C32        -5.1360   -1.3140   -1.8720 c3        1 MOL      0.352494
    104 C33        -6.4010   -0.4550   -1.6580 c         1 MOL      0.522080
    105 O16        -6.4500    0.6210   -2.2330 o         1 MOL     -0.551105
    106 C34        -5.2570   -2.5650   -2.7030 c3        1 MOL     -0.262938
    107 C35        -6.0350   -3.6340   -1.9170 c         1 MOL      0.713908
    108 O17        -6.1060   -3.4010   -0.7080 o         1 MOL     -0.699732
    109 O18        -6.3270   -4.6400   -2.4930 o         1 MOL     -0.699732
    110 H47        -4.5070    0.1390   -3.2450 hn        1 MOL      0.344448
    111 H48        -4.7080   -1.5660   -0.8980 h1        1 MOL     -0.046480
    112 H49        -4.2310   -2.9150   -2.8630 hc        1 MOL      0.035872
    113 H50        -5.7240   -2.3060   -3.6480 hc        1 MOL      0.035872
    114 N11        -7.3790   -0.9110   -0.9190 n         1 MOL     -0.558412
    115 C36        -8.6790   -0.3010   -0.6480 c3        1 MOL      0.355322
    116 C37        -9.0660   -0.6250    0.8390 c         1 MOL      0.223449
    117 O19        -8.9550   -1.8220    1.2220 o         1 MOL     -0.497475
    118 C38        -9.6920   -0.8180   -1.6960 c3        1 MOL     -0.077909
    119 C39       -11.0880   -0.2240   -1.5580 ca        1 MOL     -0.001434
    120 C40       -12.0820   -0.8290   -0.7740 ca        1 MOL     -0.115484
    121 C41       -11.2980    1.1550   -2.0310 ca        1 MOL     -0.115484
    122 C42       -13.3180   -0.1860   -0.6830 ca        1 MOL     -0.200695
    123 C43       -12.5900    1.7080   -1.9500 ca        1 MOL     -0.200695
    124 C44       -13.6100    1.0600   -1.3570 ca        1 MOL     -0.023334
    125 H51        -7.2800   -1.8390   -0.5390 hn        1 MOL      0.282796
    126 H52        -8.6340    0.7730   -0.7940 h1        1 MOL      0.001216
    127 H53        -9.8390   -1.8910   -1.6260 hc        1 MOL      0.050843
    128 H54        -9.2580   -0.6680   -2.6780 hc        1 MOL      0.050843
    129 H55       -11.8860   -1.8100   -0.3600 ha        1 MOL      0.136862
    130 H56       -10.5090    1.6400   -2.5890 ha        1 MOL      0.136862
    131 H57       -14.0450   -0.6040   -0.0080 ha        1 MOL      0.117769
    132 H58       -12.8050    2.6700   -2.3860 ha        1 MOL      0.117769
    133 H59       -14.5900    1.4760   -1.2220 ha        1 MOL      0.071561
    134 N12        -9.6590    0.2630    1.6300 n         1 MOL      0.071639
    135 C45       -10.0420    1.6560    1.2800 c3        1 MOL     -0.122937
    136 C46        -8.8920    2.6490    1.2140 c         1 MOL      0.550043
    137 O20        -9.0510    3.7570    0.6440 o         1 MOL     -0.522235
    138 C47       -11.0730    1.9920    2.2870 c3        1 MOL      0.021191
    139 C48       -10.6970    1.3160    3.5640 c3        1 MOL      0.000377
    140 C49       -10.2510   -0.0600    2.9640 c3        1 MOL     -0.091293
    141 H60       -10.5880    1.7540    0.3460 h1        1 MOL      0.113415
    142 H61       -11.1470    3.0640    2.5030 hc        1 MOL      0.002223
    143 H62       -12.0600    1.6480    1.9760 hc        1 MOL      0.002223
    144 H63        -9.8000    1.7720    3.9970 hc        1 MOL      0.018863
    145 H64       -11.4790    1.2150    4.3040 hc        1 MOL      0.018863
    146 H65        -9.5710   -0.4920    3.6930 h1        1 MOL      0.047033
    147 H66       -11.0200   -0.7870    2.7120 h1        1 MOL      0.047033
    148 N13        -7.6910    2.3200    1.8370 n         1 MOL     -0.587103
    149 C50        -6.4780    3.1910    1.7560 c3        1 MOL      0.299777
    150 C51        -5.6700    2.9960    3.0710 c         1 MOL      0.363449
    151 O21        -5.3600    1.9080    3.4860 o         1 MOL     -0.552305
    152 C52        -5.7500    2.7340    0.5150 c3        1 MOL     -0.024792
    153 C53        -4.7440    3.8150    0.0150 c3        1 MOL     -0.039140
    154 C54        -5.5120    4.9580   -0.6950 c         1 MOL      0.677939
    155 O22        -5.7650    4.7770   -1.8710 o         1 MOL     -0.712674
    156 O23        -5.7800    6.0020   -0.0190 o         1 MOL     -0.712674
    157 H67        -7.5200    1.5130    2.4160 hn        1 MOL      0.285726
    158 H68        -6.7770    4.2390    1.6930 h1        1 MOL      0.038406
    159 H69        -6.5010    2.5700   -0.2540 hc        1 MOL      0.044452
    160 H70        -5.3250    1.7430    0.6930 hc        1 MOL      0.044452
    161 H71        -3.9130    3.4150   -0.5580 hc        1 MOL     -0.041623
    162 H72        -4.2740    4.3080    0.8680 hc        1 MOL     -0.041623
    163 N14        -5.0850    4.0300    3.6560 n         1 MOL     -0.355931
    164 C55        -4.9530    5.4830    3.2440 c3        1 MOL     -0.111282
    165 H73        -4.1160    5.5900    2.5540 h1        1 MOL      0.067923
    166 H74        -5.8710    5.8070    2.7540 h1        1 MOL      0.067923
    167 H75        -4.7760    6.0960    4.1280 h1        1 MOL      0.067923
    168 H76        -4.5650    3.7370    4.4710 hn        1 MOL      0.263445
    169 Ca1         5.8460    3.2620    0.9380 Ca        1 MOL      1.732639
    170 O24         4.4720    2.1690   -1.5460 oh        1 MOL     -0.919199
    171 H77         4.2310    1.2480   -1.6570 ho        1 MOL      0.451455
    172 H78         3.7650    2.6540   -1.9900 ho        1 MOL      0.451455
    173 O25         3.3060    2.6300    1.4760 oh        1 MOL     -0.919199
    174 H79         3.2210    2.5660    2.4290 ho        1 MOL      0.451455
    175 H80         2.4390    2.3940    1.1460 ho        1 MOL      0.451455
    176 O26         5.9470    3.2760    3.7600 oh        1 MOL     -0.919199
    177 H81         6.8170    3.3310    4.1550 ho        1 MOL      0.451455
    178 H82         5.3590    3.6080    4.4450 ho        1 MOL      0.451455
    179 O27         8.0100    4.6510    1.9050 oh        1 MOL     -0.919199
    180 H83         8.6670    4.0680    2.2850 ho        1 MOL      0.451455
    181 H84         8.1270    5.4870    2.3710 ho        1 MOL      0.451455
@<TRIPOS>BOND
     1    1    2 1   
     2    1    4 1   
     3    1    5 1   
     4    1    6 1   
     5    2    3 2   
     6    2    7 1   
     7    7    8 1   
     8    7   15 1   
     9    8    9 1   
    10    8   11 1   
    11    8   16 1   
    12    9   10 2   
    13    9   19 1   
    14   11   12 1   
    15   11   17 1   
    16   11   18 1   
    17   12   13 1   
    18   12   14 1   
    19   19   20 1   
    20   19   24 1   
    21   20   21 1   
    22   20   23 1   
    23   20   25 1   
    24   21   22 2   
    25   21   29 1   
    26   23   26 1   
    27   23   27 1   
    28   23   28 1   
    29   29   30 1   
    30   29   37 1   
    31   30   31 1   
    32   30   33 1   
    33   30   38 1   
    34   31   32 2   
    35   31   41 1   
    36   33   34 1   
    37   33   39 1   
    38   33   40 1   
    39   34   35 1   
    40   34   36 1   
    41   41   42 1   
    42   41   45 1   
    43   42   43 1   
    44   42   46 1   
    45   42   47 1   
    46   43   44 2   
    47   43   48 1   
    48   48   49 1   
    49   48   56 1   
    50   49   50 1   
    51   49   52 1   
    52   49   57 1   
    53   50   51 2   
    54   50   62 1   
    55   52   53 1   
    56   52   58 1   
    57   52   59 1   
    58   53   54 1   
    59   53   55 2   
    60   54   60 1   
    61   54   61 1   
    62   62   63 1   
    63   62   66 1   
    64   63   64 1   
    65   63   67 1   
    66   63   68 1   
    67   64   65 2   
    68   64   69 1   
    69   69   70 1   
    70   69   76 1   
    71   70   71 1   
    72   70   73 1   
    73   70   77 1   
    74   71   72 2   
    75   71   83 1   
    76   73   74 1   
    77   73   75 1   
    78   73   78 1   
    79   74   80 1   
    80   74   81 1   
    81   74   82 1   
    82   75   79 1   
    83   83   84 1   
    84   83   91 1   
    85   84   85 1   
    86   84   87 1   
    87   84   92 1   
    88   85   86 2   
    89   85  102 1   
    90   87   88 1   
    91   87   89 1   
    92   87   93 1   
    93   88   90 1   
    94   88   94 1   
    95   88   95 1   
    96   89   96 1   
    97   89   97 1   
    98   89   98 1   
    99   90   99 1   
   100   90  100 1   
   101   90  101 1   
   102  102  103 1   
   103  102  110 1   
   104  103  104 1   
   105  103  106 1   
   106  103  111 1   
   107  104  105 2   
   108  104  114 1   
   109  106  107 1   
   110  106  112 1   
   111  106  113 1   
   112  107  108 1   
   113  107  109 1   
   114  114  115 1   
   115  114  125 1   
   116  115  116 1   
   117  115  118 1   
   118  115  126 1   
   119  116  117 2   
   120  116  134 1   
   121  118  119 1   
   122  118  127 1   
   123  118  128 1   
   124  119  120 ar  
   125  119  121 ar  
   126  120  122 ar  
   127  120  129 1   
   128  121  123 ar  
   129  121  130 1   
   130  122  124 ar  
   131  122  131 1   
   132  123  124 ar  
   133  123  132 1   
   134  124  133 1   
   135  134  135 1   
   136  134  140 1   
   137  135  136 1   
   138  135  138 1   
   139  135  141 1   
   140  136  137 2   
   141  136  148 1   
   142  138  139 1   
   143  138  142 1   
   144  138  143 1   
   145  139  140 1   
   146  139  144 1   
   147  139  145 1   
   148  140  146 1   
   149  140  147 1   
   150  148  149 1   
   151  148  157 1   
   152  149  150 1   
   153  149  152 1   
   154  149  158 1   
   155  150  151 2   
   156  150  163 1   
   157  152  153 1   
   158  152  159 1   
   159  152  160 1   
   160  153  154 1   
   161  153  161 1   
   162  153  162 1   
   163  154  155 1   
   164  154  156 1   
   165  163  164 1   
   166  163  168 1   
   167  164  165 1   
   168  164  166 1   
   169  164  167 1   
   170  170  171 1   
   171  170  172 1   
   172  173  174 1   
   173  173  175 1   
   174  176  177 1   
   175  176  178 1   
   176  179  180 1   
   177  179  181 1   
@<TRIPOS>SUBSTRUCTURE
     1 MOL         1 TEMP              0 ****  ****    0 ROOT
