@<TRIPOS>MOLECULE
MOL
  192   187     1     0     0
SMALL
resp


@<TRIPOS>ATOM
      1 C1         -6.2290   -3.0300    2.8550 c3        1 MOL     -0.185418
      2 C2         -5.1620   -3.4310    1.7990 c         1 MOL      0.737476
      3 O1         -4.1720   -2.8030    1.3920 o         1 MOL     -0.526605
      4 H1         -6.5490   -2.0040    2.6750 hc        1 MOL      0.028558
      5 H2         -7.0880   -3.6970    2.7750 hc        1 MOL      0.028558
      6 H3         -5.8000   -3.1070    3.8540 hc        1 MOL      0.028558
      7 N1         -5.2450   -4.6670    1.3030 n         1 MOL     -0.742177
      8 C3         -4.2440   -5.4050    0.3860 c3        1 MOL      0.076339
      9 C4         -2.7080   -5.2670    0.7250 c         1 MOL      0.959868
     10 O2         -1.7920   -4.9850   -0.0320 o         1 MOL     -0.672765
     11 C5         -4.4330   -5.1580   -1.0770 c3        1 MOL     -0.621597
     12 C6         -5.8330   -4.7740   -1.5650 c         1 MOL      0.980491
     13 O3         -6.5110   -5.6100   -2.1680 o         1 MOL     -0.783824
     14 O4         -6.2960   -3.6140   -1.4360 o         1 MOL     -0.783824
     15 H4         -6.0080   -5.2070    1.6700 hn        1 MOL      0.324798
     16 H5         -4.4260   -6.4600    0.5970 h1        1 MOL      0.079973
     17 H6         -4.0410   -6.0080   -1.6460 hc        1 MOL      0.199573
     18 H7         -3.8940   -4.2450   -1.3450 hc        1 MOL      0.199573
     19 N2         -2.3890   -5.6400    1.9780 n         1 MOL     -0.925688
     20 C7         -1.0220   -5.3600    2.4980 c3        1 MOL      0.332502
     21 C8         -0.0240   -6.3070    1.7910 c         1 MOL      0.718491
     22 O5         -0.0700   -7.5160    1.8580 o         1 MOL     -0.650965
     23 C9         -0.9130   -5.5010    4.0380 c3        1 MOL     -0.006855
     24 C10        -1.7740   -4.4300    4.8090 c3        1 MOL     -0.206541
     25 C11         0.5460   -5.5270    4.4110 c3        1 MOL     -0.185957
     26 C12        -1.2250   -2.9980    4.9200 c3        1 MOL     -0.004488
     27 H8         -3.1180   -5.6690    2.6750 hn        1 MOL      0.378738
     28 H9         -0.6630   -4.3360    2.3740 h1        1 MOL      0.075931
     29 H10        -1.3490   -6.4840    4.2330 hc        1 MOL     -0.009793
     30 H11        -1.9120   -4.6840    5.8540 hc        1 MOL      0.058631
     31 H12        -2.7560   -4.3470    4.3340 hc        1 MOL      0.058631
     32 H13         1.0950   -6.4340    4.1720 hc        1 MOL      0.053598
     33 H14         1.0770   -4.6280    4.1210 hc        1 MOL      0.053598
     34 H15         0.6070   -5.5000    5.4970 hc        1 MOL      0.053598
     35 H16        -1.4250   -2.5470    3.9430 hc        1 MOL      0.016347
     36 H17        -1.8090   -2.4140    5.6270 hc        1 MOL      0.016347
     37 H18        -0.1730   -2.9930    5.1940 hc        1 MOL      0.016347
     38 N3          0.9940   -5.8430    1.1280 n         1 MOL     -0.578977
     39 C13         1.2300   -4.5150    0.5000 c3        1 MOL      0.173061
     40 C14         1.4260   -4.6010   -1.0230 c         1 MOL      0.677499
     41 O6          1.7310   -5.6890   -1.5680 o         1 MOL     -0.564069
     42 C15         2.4630   -3.9590    1.2980 c3        1 MOL     -0.232939
     43 C16         3.5000   -3.3230    0.3630 c         1 MOL      0.685743
     44 O7          4.4560   -3.9980   -0.0110 o         1 MOL     -0.671709
     45 O8          3.2730   -2.2000   -0.1180 o         1 MOL     -0.671709
     46 H19         1.6840   -6.5490    0.9560 hn        1 MOL      0.319407
     47 H20         0.4130   -3.8370    0.7530 h1        1 MOL     -0.005012
     48 H21         2.8660   -4.8480    1.7880 hc        1 MOL      0.023419
     49 H22         2.0980   -3.3140    2.1060 hc        1 MOL      0.023419
     50 N4          1.3870   -3.4520   -1.7880 n         1 MOL     -0.471314
     51 C17         1.4550   -3.3970   -3.2420 c3        1 MOL     -0.163007
     52 C18         2.6980   -2.8340   -3.8650 c         1 MOL      0.658411
     53 O9          2.7390   -2.6800   -5.0910 o         1 MOL     -0.618012
     54 H23         1.2700   -2.5660   -1.3250 hn        1 MOL      0.283277
     55 H24         0.6070   -2.7480   -3.4660 h1        1 MOL      0.105253
     56 H25         1.3030   -4.3530   -3.7310 h1        1 MOL      0.105253
     57 N5          3.7470   -2.3060   -3.1490 n         1 MOL     -0.536358
     58 C19         4.9900   -1.7840   -3.7820 c3        1 MOL      0.068358
     59 C20         6.2090   -1.8700   -2.8580 c         1 MOL      0.388052
     60 O10         7.2880   -1.7420   -3.2890 o         1 MOL     -0.568243
     61 C21         4.7320   -0.3360   -4.1850 c3        1 MOL     -0.227574
     62 C22         4.1280    0.4580   -2.9830 c         1 MOL      0.631639
     63 O11         4.8710    0.6250   -1.9600 o         1 MOL     -0.626330
     64 O12         2.9430    0.9040   -3.0040 o         1 MOL     -0.626330
     65 H26         3.6290   -2.1860   -2.1460 hn        1 MOL      0.391712
     66 H27         5.2320   -2.3960   -4.6540 h1        1 MOL      0.095680
     67 H28         3.9270   -0.3510   -4.9150 hc        1 MOL      0.059853
     68 H29         5.6520    0.1070   -4.5820 hc        1 MOL      0.059853
     69 N6          6.0810   -2.1610   -1.5320 n         1 MOL     -0.032497
     70 C23         7.2300   -2.3270   -0.6370 c3        1 MOL     -0.021202
     71 C24         7.9920   -1.0460   -0.3160 c         1 MOL      0.351290
     72 O13         9.0220   -1.1630    0.3990 o         1 MOL     -0.603972
     73 H30         5.1680   -2.4260   -1.1870 hn        1 MOL      0.052971
     74 H31         7.9390   -2.9920   -1.1380 h1        1 MOL      0.047696
     75 H32         6.8710   -2.8590    0.2430 h1        1 MOL      0.047696
     76 N7          7.4920    0.1200   -0.7260 n         1 MOL      0.280960
     77 C25         8.0400    1.4770   -0.5160 c3        1 MOL     -0.015124
     78 C26         8.0380    1.9400    0.9730 c         1 MOL      0.419399
     79 O14         8.8320    2.8030    1.4390 o         1 MOL     -0.547402
     80 C27         9.3730    1.6790   -1.2330 c3        1 MOL      0.113229
     81 C28         9.2210    1.2080   -2.7060 c3        1 MOL     -0.075923
     82 C29        10.2280    1.8250   -3.6610 c         1 MOL      0.621366
     83 N8         11.4930    1.7760   -3.3610 n         1 MOL     -0.763528
     84 O15         9.8670    2.4040   -4.6870 o         1 MOL     -0.591851
     85 H33         6.6250    0.1150   -1.2500 hn        1 MOL     -0.032695
     86 H34         7.3190    2.0810   -1.0710 h1        1 MOL      0.067572
     87 H35        10.1020    1.0680   -0.7110 hc        1 MOL     -0.041590
     88 H36         9.6850    2.7260   -1.1970 hc        1 MOL     -0.041590
     89 H37         8.2400    1.4130   -3.1270 hc        1 MOL      0.021052
     90 H38         9.4110    0.1370   -2.7670 hc        1 MOL      0.021052
     91 H39        11.7880    1.3970   -2.4800 hn        1 MOL      0.335130
     92 H40        12.0590    2.4510   -3.8630 hn        1 MOL      0.335130
     93 N9          7.1770    1.2900    1.7140 n         1 MOL     -0.338471
     94 C30         6.8040    1.5270    3.1810 c3        1 MOL      0.009490
     95 C31         5.4610    2.0730    3.5040 c         1 MOL      0.604124
     96 O16         5.3720    2.6490    4.5960 o         1 MOL     -0.578536
     97 C32         6.9580    0.2920    3.9760 c3        1 MOL      0.383782
     98 C33         5.9570   -0.8190    3.6780 c3        1 MOL     -0.524932
     99 C34         8.3790   -0.2740    3.7170 c3        1 MOL     -0.524932
    100 H41         6.6620    0.5530    1.2530 hn        1 MOL      0.146675
    101 H42         7.5500    2.2450    3.5460 h1        1 MOL      0.062950
    102 H43         6.8110    0.6670    4.9880 hc        1 MOL     -0.049392
    103 H44         5.0420   -0.7770    4.2670 hc        1 MOL      0.128670
    104 H45         5.7890   -0.9980    2.6130 hc        1 MOL      0.128670
    105 H46         6.4350   -1.7410    4.0230 hc        1 MOL      0.128670
    106 H47         9.1090    0.5280    3.7900 hc        1 MOL      0.128670
    107 H48         8.6110   -1.1630    4.3020 hc        1 MOL      0.128670
    108 H49         8.4440   -0.6910    2.7080 hc        1 MOL      0.128670
    109 N10         4.4280    1.9720    2.6210 n         1 MOL     -0.505984
    110 C35         3.0420    2.1450    2.9130 c3        1 MOL      0.115023
    111 C36         2.2610    2.6320    1.5990 c         1 MOL      0.601074
    112 O17         2.8910    2.7420    0.5200 o         1 MOL     -0.490337
    113 C37         2.5320    0.8190    3.4460 c3        1 MOL     -0.027197
    114 C38         1.0820    0.7800    3.7370 c         1 MOL      0.461329
    115 N11         0.2680    0.3880    2.8700 n         1 MOL     -0.594774
    116 O18         0.6270    1.1570    4.7970 o         1 MOL     -0.586279
    117 H50         4.5830    1.6410    1.6920 hn        1 MOL      0.264269
    118 H51         2.8870    2.9100    3.6760 h1        1 MOL      0.060243
    119 H52         3.1040    0.6540    4.3550 hc        1 MOL      0.049042
    120 H53         2.8070   -0.0100    2.7940 hc        1 MOL      0.049042
    121 H54         0.4710    0.0810    1.9350 hn        1 MOL      0.320383
    122 H55        -0.6890    0.5860    3.1420 hn        1 MOL      0.320383
    123 N12         0.9440    2.9830    1.7380 n         1 MOL     -0.710490
    124 C39         0.1460    3.4080    0.6430 c3        1 MOL      0.214345
    125 C40        -1.1430    4.0630    1.1840 c         1 MOL      0.659217
    126 O19        -1.7580    3.7290    2.1960 o         1 MOL     -0.564667
    127 C41        -0.1560    2.2670   -0.3830 c3        1 MOL      0.020558
    128 C42        -0.9150    2.7600   -1.6220 ca        1 MOL      0.013088
    129 C43        -0.3700    3.7260   -2.4650 ca        1 MOL     -0.083174
    130 C44        -2.2310    2.3380   -1.8800 ca        1 MOL     -0.083174
    131 C45        -1.0190    3.9990   -3.7020 ca        1 MOL     -0.271261
    132 C46        -2.8810    2.6410   -3.0570 ca        1 MOL     -0.271261
    133 C47        -2.2460    3.4160   -4.0040 ca        1 MOL      0.310414
    134 O20        -2.8380    3.7930   -5.1960 oh        1 MOL     -0.509295
    135 H56         0.4240    2.8160    2.5870 hn        1 MOL      0.331799
    136 H57         0.6190    4.2100    0.0760 h1        1 MOL      0.057470
    137 H58        -0.8130    1.5820    0.1500 hc        1 MOL      0.025543
    138 H59         0.7800    1.7880   -0.6800 hc        1 MOL      0.025543
    139 H60         0.5160    4.2730   -2.1740 ha        1 MOL      0.118543
    140 H61        -2.6750    1.5850   -1.2340 ha        1 MOL      0.118543
    141 H62        -0.5560    4.6650   -4.4230 ha        1 MOL      0.162574
    142 H63        -3.8590    2.2680   -3.3370 ha        1 MOL      0.162574
    143 H64        -3.7790    3.5910   -5.1770 ho        1 MOL      0.357041
    144 N13        -1.6330    5.0650    0.3750 n         1 MOL     -0.819045
    145 C48        -2.8260    5.8130    0.4480 c3        1 MOL      0.452549
    146 C49        -3.7010    5.3630   -0.7870 c         1 MOL      0.471816
    147 O21        -3.3370    5.6750   -1.8800 o         1 MOL     -0.528171
    148 C50        -2.6210    7.3340    0.6180 c3        1 MOL     -0.117879
    149 C51        -3.9950    7.9630    0.8570 c3        1 MOL     -0.187508
    150 C52        -3.8880    9.5060    0.7600 c         1 MOL      0.697638
    151 O22        -3.6770   10.0770   -0.3700 o         1 MOL     -0.703376
    152 O23        -4.0870   10.1570    1.8010 o         1 MOL     -0.703376
    153 H65        -1.0650    5.2070   -0.4400 hn        1 MOL      0.335870
    154 H66        -3.3800    5.4440    1.3130 h1        1 MOL      0.005235
    155 H67        -2.2380    7.7570   -0.3070 hc        1 MOL      0.039792
    156 H68        -1.9950    7.5210    1.4800 hc        1 MOL      0.039792
    157 H69        -4.2870    7.7510    1.8780 hc        1 MOL      0.037474
    158 H70        -4.7880    7.6140    0.1910 hc        1 MOL      0.037474
    159 N14        -4.6520    4.4860   -0.7960 n         1 MOL     -0.381841
    160 C53        -5.1230    3.5690    0.2330 c3        1 MOL     -0.200793
    161 C54        -5.7230    4.3800    1.3970 c         1 MOL      0.629135
    162 O24        -6.3050    5.4120    1.2130 o         1 MOL     -0.538472
    163 C55        -6.1230    2.5570   -0.3010 c3        1 MOL     -0.021414
    164 C56        -6.5280    1.5440    0.8340 c3        1 MOL     -0.131103
    165 C57        -7.2590    0.3660    0.1510 c         1 MOL      0.958062
    166 O25        -8.3790   -0.0030    0.4780 o         1 MOL     -0.877710
    167 O26        -6.7020   -0.2200   -0.8330 o         1 MOL     -0.877710
    168 H71        -5.0960    4.3400   -1.6870 hn        1 MOL      0.256528
    169 H72        -4.2440    3.0020    0.5440 h1        1 MOL      0.069083
    170 H73        -5.7130    2.0190   -1.1570 hc        1 MOL      0.057691
    171 H74        -7.0330    3.0480   -0.6570 hc        1 MOL      0.057691
    172 H75        -7.2450    2.0070    1.5250 hc        1 MOL      0.014273
    173 H76        -5.7260    0.9900    1.3120 hc        1 MOL      0.014273
    174 N15        -5.4180    3.9040    2.6490 n         1 MOL     -0.312862
    175 C58        -5.6380    4.5960    3.9240 c3        1 MOL     -0.195676
    176 H77        -6.2460    5.4850    3.7540 h1        1 MOL      0.092319
    177 H78        -6.1530    3.9300    4.6160 h1        1 MOL      0.092319
    178 H79        -4.6780    4.8900    4.3480 h1        1 MOL      0.092319
    179 H80        -4.9050    3.0310    2.6530 hn        1 MOL      0.243620
    180 Ca1        -8.6160   -2.0710   -1.5000 Ca        1 MOL      1.644270
    181 O27        -8.9520   -4.6900   -1.2770 oh        1 MOL     -0.842666
    182 H81        -9.5400   -5.4310   -1.4220 ho        1 MOL      0.404994
    183 H82        -8.0810   -5.0550   -1.4300 ho        1 MOL      0.404994
    184 O28        -7.3440   -1.2840   -3.6850 oh        1 MOL     -0.842666
    185 H83        -7.2920   -0.3750   -3.9840 ho        1 MOL      0.404994
    186 H84        -6.5570   -1.7030   -4.0450 ho        1 MOL      0.404994
    187 O29       -10.1310    0.0450   -2.5500 oh        1 MOL     -0.842666
    188 H85       -10.4090    0.0800   -1.6360 ho        1 MOL      0.404994
    189 H86       -10.3410    0.9180   -2.8990 ho        1 MOL      0.404994
    190 O30        -9.8670   -3.1390   -3.6000 oh        1 MOL     -0.842666
    191 H87        -9.1930   -3.5070   -4.1690 ho        1 MOL      0.404994
    192 H88       -10.6940   -3.3530   -4.0240 ho        1 MOL      0.404994
@<TRIPOS>BOND
     1    1    2 1   
     2    1    4 1   
     3    1    5 1   
     4    1    6 1   
     5    2    3 2   
     6    2    7 1   
     7    7    8 1   
     8    7   15 1   
     9    8    9 1   
    10    8   11 1   
    11    8   16 1   
    12    9   10 2   
    13    9   19 1   
    14   11   12 1   
    15   11   17 1   
    16   11   18 1   
    17   12   13 1   
    18   12   14 1   
    19   19   20 1   
    20   19   27 1   
    21   20   21 1   
    22   20   23 1   
    23   20   28 1   
    24   21   22 2   
    25   21   38 1   
    26   23   24 1   
    27   23   25 1   
    28   23   29 1   
    29   24   26 1   
    30   24   30 1   
    31   24   31 1   
    32   25   32 1   
    33   25   33 1   
    34   25   34 1   
    35   26   35 1   
    36   26   36 1   
    37   26   37 1   
    38   38   39 1   
    39   38   46 1   
    40   39   40 1   
    41   39   42 1   
    42   39   47 1   
    43   40   41 2   
    44   40   50 1   
    45   42   43 1   
    46   42   48 1   
    47   42   49 1   
    48   43   44 1   
    49   43   45 1   
    50   50   51 1   
    51   50   54 1   
    52   51   52 1   
    53   51   55 1   
    54   51   56 1   
    55   52   53 2   
    56   52   57 1   
    57   57   58 1   
    58   57   65 1   
    59   58   59 1   
    60   58   61 1   
    61   58   66 1   
    62   59   60 2   
    63   59   69 1   
    64   61   62 1   
    65   61   67 1   
    66   61   68 1   
    67   62   63 1   
    68   62   64 1   
    69   69   70 1   
    70   69   73 1   
    71   70   71 1   
    72   70   74 1   
    73   70   75 1   
    74   71   72 2   
    75   71   76 1   
    76   76   77 1   
    77   76   85 1   
    78   77   78 1   
    79   77   80 1   
    80   77   86 1   
    81   78   79 2   
    82   78   93 1   
    83   80   81 1   
    84   80   87 1   
    85   80   88 1   
    86   81   82 1   
    87   81   89 1   
    88   81   90 1   
    89   82   83 1   
    90   82   84 2   
    91   83   91 1   
    92   83   92 1   
    93   93   94 1   
    94   93  100 1   
    95   94   95 1   
    96   94   97 1   
    97   94  101 1   
    98   95   96 2   
    99   95  109 1   
   100   97   98 1   
   101   97   99 1   
   102   97  102 1   
   103   98  103 1   
   104   98  104 1   
   105   98  105 1   
   106   99  106 1   
   107   99  107 1   
   108   99  108 1   
   109  109  110 1   
   110  109  117 1   
   111  110  111 1   
   112  110  113 1   
   113  110  118 1   
   114  111  112 2   
   115  111  123 1   
   116  113  114 1   
   117  113  119 1   
   118  113  120 1   
   119  114  115 1   
   120  114  116 2   
   121  115  121 1   
   122  115  122 1   
   123  123  124 1   
   124  123  135 1   
   125  124  125 1   
   126  124  127 1   
   127  124  136 1   
   128  125  126 2   
   129  125  144 1   
   130  127  128 1   
   131  127  137 1   
   132  127  138 1   
   133  128  129 ar  
   134  128  130 ar  
   135  129  131 ar  
   136  129  139 1   
   137  130  132 ar  
   138  130  140 1   
   139  131  133 ar  
   140  131  141 1   
   141  132  133 ar  
   142  132  142 1   
   143  133  134 1   
   144  134  143 1   
   145  144  145 1   
   146  144  153 1   
   147  145  146 1   
   148  145  148 1   
   149  145  154 1   
   150  146  147 2   
   151  146  159 1   
   152  148  149 1   
   153  148  155 1   
   154  148  156 1   
   155  149  150 1   
   156  149  157 1   
   157  149  158 1   
   158  150  151 1   
   159  150  152 1   
   160  159  160 1   
   161  159  168 1   
   162  160  161 1   
   163  160  163 1   
   164  160  169 1   
   165  161  162 2   
   166  161  174 1   
   167  163  164 1   
   168  163  170 1   
   169  163  171 1   
   170  164  165 1   
   171  164  172 1   
   172  164  173 1   
   173  165  166 1   
   174  165  167 1   
   175  174  175 1   
   176  174  179 1   
   177  175  176 1   
   178  175  177 1   
   179  175  178 1   
   180  181  182 1   
   181  181  183 1   
   182  184  185 1   
   183  184  186 1   
   184  187  188 1   
   185  187  189 1   
   186  190  191 1   
   187  190  192 1   
@<TRIPOS>SUBSTRUCTURE
     1 MOL         1 TEMP              0 ****  ****    0 ROOT
