@<TRIPOS>MOLECULE
MOL
  192   187     1     0     0
SMALL
resp


@<TRIPOS>ATOM
      1 C1        -11.1250   -2.1110   -1.8370 c3        1 MOL     -0.588105
      2 C2         -9.8020   -1.2450   -1.6160 c         1 MOL      0.597562
      3 O1         -8.8350   -1.2110   -2.3540 o         1 MOL     -0.578919
      4 H1        -10.9860   -2.7720   -2.6930 hc        1 MOL      0.158776
      5 H2        -11.3210   -2.7080   -0.9460 hc        1 MOL      0.158776
      6 H3        -11.9680   -1.4470   -2.0230 hc        1 MOL      0.158776
      7 N1         -9.7010   -0.6880   -0.4000 n         1 MOL     -0.375445
      8 C3         -8.4660   -0.2160    0.2710 c3        1 MOL      0.138575
      9 C4         -7.7300   -1.4010    1.0440 c         1 MOL      0.334807
     10 O2         -8.0560   -1.7570    2.1700 o         1 MOL     -0.444450
     11 C5         -8.7560    1.0010    1.2360 c3        1 MOL     -0.357949
     12 C6        -10.0670    0.9620    2.0530 c         1 MOL      0.738489
     13 O3        -10.1870    1.8290    2.9250 o         1 MOL     -0.648618
     14 O4        -11.0190    0.1410    1.7780 o         1 MOL     -0.648618
     15 H4        -10.5110   -0.8340    0.1840 hn        1 MOL      0.237401
     16 H5         -7.7470    0.0920   -0.4820 h1        1 MOL      0.023635
     17 H6         -8.8680    1.9280    0.6640 hc        1 MOL      0.111068
     18 H7         -7.9130    1.0470    1.9110 hc        1 MOL      0.111068
     19 N2         -6.7780   -2.0710    0.3280 n         1 MOL     -0.227728
     20 C7         -6.2000   -3.4240    0.6960 c3        1 MOL      0.193557
     21 C8         -4.8240   -3.4540    1.4410 c         1 MOL      0.405161
     22 O5         -4.6330   -4.2730    2.3180 o         1 MOL     -0.529165
     23 C9         -6.1690   -4.4290   -0.5000 c3        1 MOL      0.023128
     24 C10        -7.6040   -4.5010   -1.0490 c3        1 MOL     -0.164319
     25 C11        -7.8660   -5.8740   -1.7970 c3        1 MOL      0.055700
     26 C12        -9.3710   -6.0450   -2.1570 c3        1 MOL      0.094093
     27 N3         -9.5920   -7.2870   -2.8430 n4        1 MOL     -0.317451
     28 H8         -6.5830   -1.5930   -0.5400 hn        1 MOL      0.154953
     29 H9         -6.8710   -3.8350    1.4440 h1        1 MOL      0.036788
     30 H10        -5.7820   -5.4080   -0.2040 hc        1 MOL      0.016184
     31 H11        -5.4630   -3.9670   -1.1890 hc        1 MOL      0.016184
     32 H12        -7.7710   -3.6660   -1.7350 hc        1 MOL      0.058652
     33 H13        -8.2340   -4.5070   -0.1570 hc        1 MOL      0.058652
     34 H14        -7.4060   -6.6630   -1.2020 hc        1 MOL      0.004190
     35 H15        -7.3420   -5.8710   -2.7500 hc        1 MOL      0.004190
     36 H16        -9.7530   -5.2460   -2.7870 hx        1 MOL      0.056066
     37 H17        -9.9160   -5.9050   -1.2210 hx        1 MOL      0.056066
     38 H18        -9.3410   -8.0410   -2.2090 hn        1 MOL      0.280835
     39 H19       -10.5470   -7.5550   -3.0500 hn        1 MOL      0.280835
     40 H20        -9.1590   -7.3850   -3.7530 hn        1 MOL      0.280835
     41 N4         -3.7950   -2.5890    1.2360 n         1 MOL     -0.355014
     42 C13        -3.7320   -1.5050    0.2680 c3        1 MOL     -0.016190
     43 C14        -3.9660   -0.0950    0.9060 c         1 MOL      0.545827
     44 O6         -3.8490    0.0530    2.0990 o         1 MOL     -0.504705
     45 C15        -2.3840   -1.6090   -0.5930 c3        1 MOL     -0.266250
     46 C16        -1.1580   -1.8100    0.2670 c         1 MOL      0.742574
     47 O7         -0.4600   -0.8330    0.5710 o         1 MOL     -0.697494
     48 O8         -0.9090   -3.0490    0.5020 o         1 MOL     -0.697494
     49 H21        -3.0230   -2.7450    1.8670 hn        1 MOL      0.333243
     50 H22        -4.4750   -1.7480   -0.4980 h1        1 MOL      0.090398
     51 H23        -2.2350   -0.6750   -1.1350 hc        1 MOL      0.054055
     52 H24        -2.5290   -2.3460   -1.3780 hc        1 MOL      0.054055
     53 N5         -4.1700    0.9050    0.0290 n         1 MOL     -0.458422
     54 C17        -4.3130    2.3190    0.4690 c3        1 MOL     -0.384663
     55 C18        -3.0200    3.0730    0.4910 c         1 MOL      0.881061
     56 O9         -1.9680    2.7180    0.1100 o         1 MOL     -0.613455
     57 H25        -4.2610    0.7300   -0.9610 hn        1 MOL      0.333762
     58 H26        -4.8640    2.4010    1.3960 h1        1 MOL      0.175097
     59 H27        -4.8880    2.8540   -0.2910 h1        1 MOL      0.175097
     60 N6         -3.2330    4.3140    1.0280 n         1 MOL     -0.861717
     61 C19        -2.1940    5.3860    1.2610 c3        1 MOL      0.585678
     62 C20        -2.7140    6.6830    0.6850 c         1 MOL      0.461511
     63 O10        -3.9110    6.9940    0.5740 o         1 MOL     -0.529164
     64 C21        -1.7970    5.4180    2.7230 c3        1 MOL     -0.548281
     65 C22        -1.1040    4.0680    3.1680 c         1 MOL      0.839247
     66 O11        -0.0970    3.7150    2.5360 o         1 MOL     -0.688081
     67 O12        -1.4380    3.4490    4.2170 o         1 MOL     -0.688081
     68 H28        -4.1130    4.4940    1.4950 hn        1 MOL      0.360178
     69 H29        -1.2510    5.1350    0.7870 h1        1 MOL     -0.041631
     70 H30        -2.7150    5.6640    3.2560 hc        1 MOL      0.111760
     71 H31        -0.9850    6.1310    2.8250 hc        1 MOL      0.111760
     72 N7         -1.7960    7.5700    0.2380 n         1 MOL     -0.515693
     73 C23        -0.3230    7.4960    0.1150 c3        1 MOL     -0.047504
     74 C24         0.2020    6.4650   -0.9060 c         1 MOL      0.725863
     75 O13        -0.3140    6.4360   -2.0370 o         1 MOL     -0.547843
     76 H32        -2.2320    8.4060   -0.1080 hn        1 MOL      0.330223
     77 H33         0.1200    7.2460    1.0850 h1        1 MOL      0.068278
     78 H34         0.1690    8.4020   -0.1980 h1        1 MOL      0.068278
     79 N8          1.3040    5.7820   -0.5500 n         1 MOL     -0.677081
     80 C25         2.0900    4.9210   -1.4040 c3        1 MOL      0.032611
     81 C26         1.4620    3.4860   -1.6680 c         1 MOL      0.614909
     82 O14         0.6260    3.1350   -0.7870 o         1 MOL     -0.539349
     83 C27         3.4770    4.8010   -0.7880 c3        1 MOL      0.527542
     84 C28         4.2440    6.0920   -0.4850 c3        1 MOL     -0.308589
     85 O15         4.3370    4.0680   -1.5970 oh        1 MOL     -0.726645
     86 H35         1.6460    5.9400    0.3910 hn        1 MOL      0.281704
     87 H36         2.0930    5.3960   -2.3860 h1        1 MOL      0.076925
     88 H37         3.4440    4.2290    0.1390 h1        1 MOL     -0.072939
     89 H38         5.1270    3.8480   -1.1000 ho        1 MOL      0.429335
     90 H39         5.1070    5.8960    0.1440 hc        1 MOL      0.075876
     91 H40         4.5120    6.5830   -1.4250 hc        1 MOL      0.075876
     92 H41         3.6740    6.8270    0.0850 hc        1 MOL      0.075876
     93 N9          1.8340    2.6970   -2.7400 n         1 MOL     -0.579816
     94 C29         1.1910    1.3670   -3.2140 c3        1 MOL      0.002433
     95 C30         1.6640    0.2380   -2.3080 c         1 MOL      0.676191
     96 O16         1.5650    0.3830   -1.0920 o         1 MOL     -0.610402
     97 C31        -0.3310    1.3370   -3.5080 c3        1 MOL      0.168942
     98 C32        -0.6740    2.3450   -4.6250 c3        1 MOL     -0.021475
     99 C33        -0.9170    0.0030   -3.8610 c3        1 MOL     -0.344150
    100 C34         0.0270    2.1570   -5.9650 c3        1 MOL     -0.231105
    101 H42         2.5240    3.1260   -3.3360 hn        1 MOL      0.331986
    102 H43         1.7420    1.2750   -4.1600 h1        1 MOL      0.039472
    103 H44        -0.8680    1.6410   -2.6030 hc        1 MOL      0.029966
    104 H45        -0.3840    3.3310   -4.2670 hc        1 MOL      0.042718
    105 H46        -1.7580    2.4020   -4.6890 hc        1 MOL      0.042718
    106 H47        -1.8920   -0.0040   -4.3350 hc        1 MOL      0.085089
    107 H48        -0.2330   -0.5650   -4.4930 hc        1 MOL      0.085089
    108 H49        -1.0790   -0.6040   -2.9620 hc        1 MOL      0.085089
    109 H50        -0.0010    1.2020   -6.4820 hc        1 MOL      0.056741
    110 H51        -0.4450    2.8340   -6.6830 hc        1 MOL      0.056741
    111 H52         1.0730    2.4340   -5.8780 hc        1 MOL      0.056741
    112 N10         2.2940   -0.7380   -2.8940 n         1 MOL     -0.369100
    113 C35         2.8110   -1.9500   -2.2070 c3        1 MOL     -0.232108
    114 C36         4.2670   -2.2800   -2.6190 c         1 MOL      0.383801
    115 O17         4.7450   -3.4350   -2.5730 o         1 MOL     -0.538454
    116 C37         1.8200   -3.1310   -2.4770 c3        1 MOL      0.496610
    117 C38         1.6230   -3.4650   -3.9510 c3        1 MOL     -0.429802
    118 O18         0.5590   -2.8840   -2.0160 oh        1 MOL     -0.588726
    119 H53         2.2070   -0.8060   -3.9000 hn        1 MOL      0.242494
    120 H54         2.8500   -1.6700   -1.1580 h1        1 MOL      0.190062
    121 H55         2.1740   -4.0530   -2.0200 h1        1 MOL     -0.006511
    122 H56         0.5020   -3.0680   -1.0750 ho        1 MOL      0.373436
    123 H57         1.1250   -4.4340   -3.8180 hc        1 MOL      0.107519
    124 H58         0.9190   -2.7000   -4.2780 hc        1 MOL      0.107519
    125 H59         2.5520   -3.4810   -4.5110 hc        1 MOL      0.107519
    126 N11         4.9830   -1.1970   -2.9220 n         1 MOL     -0.056617
    127 C39         6.4420   -1.2250   -3.1560 c3        1 MOL      0.007344
    128 C40         7.1170   -1.3320   -1.7620 c         1 MOL      0.507571
    129 O19         7.7540   -0.3550   -1.2810 o         1 MOL     -0.504447
    130 C41         6.9430   -0.0440   -4.0590 c3        1 MOL      0.161824
    131 C42         6.2370   -0.1500   -5.4410 c3        1 MOL     -0.212041
    132 O20         6.5190    1.1850   -3.5390 oh        1 MOL     -0.584677
    133 H60         4.4230   -0.3600   -3.0060 hn        1 MOL      0.162895
    134 H61         6.7420   -2.1260   -3.6920 h1        1 MOL      0.061450
    135 H62         8.0190   -0.1110   -4.2130 h1        1 MOL      0.063977
    136 H63         6.6560    1.8070   -4.2470 ho        1 MOL      0.415404
    137 H64         6.4870   -1.1520   -5.7660 hc        1 MOL      0.047495
    138 H65         5.1600   -0.1910   -5.5530 hc        1 MOL      0.047495
    139 H66         6.6300    0.6720   -6.0390 hc        1 MOL      0.047495
    140 N12         6.8230   -2.4610   -1.1080 n         1 MOL     -0.686367
    141 C43         6.8390   -2.6620    0.3780 c3        1 MOL      0.370823
    142 C44         5.5680   -1.9310    0.8770 c         1 MOL      0.321507
    143 O21         4.9250   -1.1660    0.1440 o         1 MOL     -0.396182
    144 C45         8.1620   -2.2590    1.0420 c3        1 MOL     -0.446333
    145 C46         9.3630   -2.7880    0.2900 c3        1 MOL      0.070339
    146 C47        10.6610   -2.5130    1.0930 c3        1 MOL      0.055798
    147 C48        11.8150   -2.8330    0.1220 c3        1 MOL     -0.056968
    148 N13        13.1830   -2.8460    0.6750 n4        1 MOL     -0.189177
    149 H67         6.3010   -3.1610   -1.6130 hn        1 MOL      0.343347
    150 H68         6.7140   -3.6990    0.6850 h1        1 MOL      0.022305
    151 H69         8.1400   -2.5240    2.1030 hc        1 MOL      0.116846
    152 H70         8.3230   -1.1770    1.0810 hc        1 MOL      0.116846
    153 H71         9.4920   -2.2590   -0.6480 hc        1 MOL      0.025746
    154 H72         9.1700   -3.8540    0.1500 hc        1 MOL      0.025746
    155 H73        10.6570   -3.1020    2.0050 hc        1 MOL      0.033107
    156 H74        10.6630   -1.4760    1.4140 hc        1 MOL      0.033107
    157 H75        11.7880   -2.0210   -0.6060 hx        1 MOL      0.082997
    158 H76        11.6940   -3.8320   -0.3120 hx        1 MOL      0.082997
    159 H77        13.3810   -1.9410    1.0700 hn        1 MOL      0.226310
    160 H78        13.2350   -3.5370    1.4140 hn        1 MOL      0.226310
    161 H79        13.8400   -2.9470   -0.0930 hn        1 MOL      0.226310
    162 N14         5.1670   -2.3780    2.0970 n         1 MOL     -0.406431
    163 C49         4.1210   -1.6870    2.8760 c3        1 MOL      0.403900
    164 C50         2.7370   -1.6900    2.1480 c         1 MOL      0.150712
    165 O22         2.1660   -0.6040    1.9290 o         1 MOL     -0.475391
    166 C51         4.1580   -2.1900    4.3200 c3        1 MOL      0.108207
    167 C52         5.3670   -1.6600    5.1220 c3        1 MOL     -0.324594
    168 C53         5.7100   -2.5220    6.3700 c         1 MOL      0.638778
    169 O23         6.3800   -2.0250    7.3020 o         1 MOL     -0.629195
    170 O24         5.1540   -3.6460    6.5540 o         1 MOL     -0.629195
    171 H80         5.6120   -3.2190    2.4250 hn        1 MOL      0.274941
    172 H81         4.3920   -0.6430    3.0130 h1        1 MOL     -0.047182
    173 H82         4.2190   -3.2700    4.2020 hc        1 MOL      0.006270
    174 H83         3.1870   -1.9520    4.7500 hc        1 MOL      0.006270
    175 H84         5.2230   -0.6340    5.4560 hc        1 MOL      0.063744
    176 H85         6.2060   -1.5530    4.4380 hc        1 MOL      0.063744
    177 N15         2.0920   -2.8150    1.8430 n         1 MOL     -0.188732
    178 C54         2.4400   -4.2410    2.0080 c3        1 MOL     -0.043197
    179 H86         1.7440   -4.8530    1.4330 h1        1 MOL      0.042159
    180 H87         3.4550   -4.4110    1.6490 h1        1 MOL      0.042159
    181 H88         2.3760   -4.5120    3.0620 h1        1 MOL      0.042159
    182 H89         1.1820   -2.5540    1.4940 hn        1 MOL      0.248436
    183 Ca1         0.4900    1.4460    1.2490 Ca        1 MOL      1.729045
    184 O25         2.9430    1.9410    0.8910 oh        1 MOL     -0.860336
    185 H90         3.4360    1.5790    0.1540 ho        1 MOL      0.416674
    186 H91         3.6000    2.3540    1.4520 ho        1 MOL      0.416674
    187 O26        -1.5500    1.1160    2.8600 oh        1 MOL     -0.860336
    188 H92        -2.4040    0.6790    2.8420 ho        1 MOL      0.416674
    189 H93        -1.6710    1.8640    3.4460 ho        1 MOL      0.416674
    190 O27         1.9890    1.8480    3.5370 oh        1 MOL     -0.860336
    191 H94         2.8500    2.1710    3.2700 ho        1 MOL      0.416674
    192 H95         1.8930    2.1490    4.4350 ho        1 MOL      0.416674
@<TRIPOS>BOND
     1    1    2 1   
     2    1    4 1   
     3    1    5 1   
     4    1    6 1   
     5    2    3 2   
     6    2    7 1   
     7    7    8 1   
     8    7   15 1   
     9    8    9 1   
    10    8   11 1   
    11    8   16 1   
    12    9   10 2   
    13    9   19 1   
    14   11   12 1   
    15   11   17 1   
    16   11   18 1   
    17   12   13 1   
    18   12   14 1   
    19   19   20 1   
    20   19   28 1   
    21   20   21 1   
    22   20   23 1   
    23   20   29 1   
    24   21   22 2   
    25   21   41 1   
    26   23   24 1   
    27   23   30 1   
    28   23   31 1   
    29   24   25 1   
    30   24   32 1   
    31   24   33 1   
    32   25   26 1   
    33   25   34 1   
    34   25   35 1   
    35   26   27 1   
    36   26   36 1   
    37   26   37 1   
    38   27   38 1   
    39   27   39 1   
    40   27   40 1   
    41   41   42 1   
    42   41   49 1   
    43   42   43 1   
    44   42   45 1   
    45   42   50 1   
    46   43   44 2   
    47   43   53 1   
    48   45   46 1   
    49   45   51 1   
    50   45   52 1   
    51   46   47 1   
    52   46   48 1   
    53   53   54 1   
    54   53   57 1   
    55   54   55 1   
    56   54   58 1   
    57   54   59 1   
    58   55   56 2   
    59   55   60 1   
    60   60   61 1   
    61   60   68 1   
    62   61   62 1   
    63   61   64 1   
    64   61   69 1   
    65   62   63 2   
    66   62   72 1   
    67   64   65 1   
    68   64   70 1   
    69   64   71 1   
    70   65   66 1   
    71   65   67 1   
    72   72   73 1   
    73   72   76 1   
    74   73   74 1   
    75   73   77 1   
    76   73   78 1   
    77   74   75 2   
    78   74   79 1   
    79   79   80 1   
    80   79   86 1   
    81   80   81 1   
    82   80   83 1   
    83   80   87 1   
    84   81   82 2   
    85   81   93 1   
    86   83   84 1   
    87   83   85 1   
    88   83   88 1   
    89   84   90 1   
    90   84   91 1   
    91   84   92 1   
    92   85   89 1   
    93   93   94 1   
    94   93  101 1   
    95   94   95 1   
    96   94   97 1   
    97   94  102 1   
    98   95   96 2   
    99   95  112 1   
   100   97   98 1   
   101   97   99 1   
   102   97  103 1   
   103   98  100 1   
   104   98  104 1   
   105   98  105 1   
   106   99  106 1   
   107   99  107 1   
   108   99  108 1   
   109  100  109 1   
   110  100  110 1   
   111  100  111 1   
   112  112  113 1   
   113  112  119 1   
   114  113  114 1   
   115  113  116 1   
   116  113  120 1   
   117  114  115 2   
   118  114  126 1   
   119  116  117 1   
   120  116  118 1   
   121  116  121 1   
   122  117  123 1   
   123  117  124 1   
   124  117  125 1   
   125  118  122 1   
   126  126  127 1   
   127  126  133 1   
   128  127  128 1   
   129  127  130 1   
   130  127  134 1   
   131  128  129 2   
   132  128  140 1   
   133  130  131 1   
   134  130  132 1   
   135  130  135 1   
   136  131  137 1   
   137  131  138 1   
   138  131  139 1   
   139  132  136 1   
   140  140  141 1   
   141  140  149 1   
   142  141  142 1   
   143  141  144 1   
   144  141  150 1   
   145  142  143 2   
   146  142  162 1   
   147  144  145 1   
   148  144  151 1   
   149  144  152 1   
   150  145  146 1   
   151  145  153 1   
   152  145  154 1   
   153  146  147 1   
   154  146  155 1   
   155  146  156 1   
   156  147  148 1   
   157  147  157 1   
   158  147  158 1   
   159  148  159 1   
   160  148  160 1   
   161  148  161 1   
   162  162  163 1   
   163  162  171 1   
   164  163  164 1   
   165  163  166 1   
   166  163  172 1   
   167  164  165 2   
   168  164  177 1   
   169  166  167 1   
   170  166  173 1   
   171  166  174 1   
   172  167  168 1   
   173  167  175 1   
   174  167  176 1   
   175  168  169 1   
   176  168  170 1   
   177  177  178 1   
   178  177  182 1   
   179  178  179 1   
   180  178  180 1   
   181  178  181 1   
   182  184  185 1   
   183  184  186 1   
   184  187  188 1   
   185  187  189 1   
   186  190  191 1   
   187  190  192 1   
@<TRIPOS>SUBSTRUCTURE
     1 MOL         1 TEMP              0 ****  ****    0 ROOT
