@<TRIPOS>MOLECULE
MOL
  192   187     1     0     0
SMALL
resp


@<TRIPOS>ATOM
      1 C1         -7.8160    0.7840   -3.7570 c3        1 MOL     -0.537810
      2 C2         -7.2430    0.8260   -2.3210 c         1 MOL      0.576263
      3 O1         -6.1860    1.3390   -1.9750 o         1 MOL     -0.563392
      4 H1         -8.6480    0.0800   -3.7960 hc        1 MOL      0.142266
      5 H2         -8.1690    1.7770   -4.0370 hc        1 MOL      0.142266
      6 H3         -7.0380    0.4670   -4.4510 hc        1 MOL      0.142266
      7 N1         -8.0640    0.2210   -1.4400 n         1 MOL     -0.162921
      8 C3         -7.8000    0.1420    0.0240 c3        1 MOL     -0.305371
      9 C4         -7.2030   -1.1160    0.5930 c         1 MOL      0.727083
     10 O2         -6.9670   -1.2860    1.7850 o         1 MOL     -0.487565
     11 C5         -9.1010    0.5700    0.8110 c3        1 MOL     -0.336113
     12 C6        -10.3160   -0.4150    0.7540 c         1 MOL      0.823616
     13 O3        -10.0880   -1.5370    0.3720 o         1 MOL     -0.713094
     14 O4        -11.4120   -0.1650    1.2630 o         1 MOL     -0.713094
     15 H4         -8.9430   -0.1020   -1.8260 hn        1 MOL      0.188334
     16 H5         -7.0900    0.9310    0.2700 h1        1 MOL      0.198314
     17 H6         -9.5060    1.4830    0.3860 hc        1 MOL      0.091819
     18 H7         -8.7630    0.5970    1.8430 hc        1 MOL      0.091819
     19 N2         -6.8090   -2.0680   -0.2840 n         1 MOL     -0.589169
     20 C7         -6.2570   -3.3830    0.0730 c3        1 MOL      0.285183
     21 C8         -5.0090   -3.3790    0.9500 c         1 MOL      0.418602
     22 O5         -4.9240   -4.2500    1.8140 o         1 MOL     -0.540205
     23 C9         -5.9820   -4.2250   -1.1820 c3        1 MOL      0.173812
     24 C10        -6.8370   -5.5320   -1.4040 c3        1 MOL     -0.045040
     25 C11        -8.3110   -5.2880   -1.5480 c3        1 MOL     -0.177950
     26 C12        -8.9380   -6.6880   -1.7480 c3        1 MOL      0.136705
     27 N3        -10.2770   -6.6410   -2.2880 n4        1 MOL     -0.426222
     28 H8         -7.1220   -1.8570   -1.2160 hn        1 MOL      0.205585
     29 H9         -6.9910   -4.0530    0.5400 h1        1 MOL      0.008161
     30 H10        -4.9480   -4.5590   -1.1600 hc        1 MOL     -0.046073
     31 H11        -6.1220   -3.6180   -2.0680 hc        1 MOL     -0.046073
     32 H12        -6.5530   -6.2220   -0.5970 hc        1 MOL      0.024554
     33 H13        -6.4530   -5.9520   -2.3270 hc        1 MOL      0.024554
     34 H14        -8.5590   -4.6730   -2.4150 hc        1 MOL      0.089214
     35 H15        -8.7880   -4.8610   -0.6680 hc        1 MOL      0.089214
     36 H16        -8.9320   -7.1280   -0.7550 hx        1 MOL      0.065108
     37 H17        -8.3130   -7.3850   -2.3020 hx        1 MOL      0.065108
     38 H18       -10.6420   -7.5640   -2.4700 hn        1 MOL      0.321435
     39 H19       -10.8690   -6.2250   -1.5820 hn        1 MOL      0.321435
     40 H20       -10.3290   -6.1500   -3.1690 hn        1 MOL      0.321435
     41 N4         -4.0190   -2.4250    0.9470 n         1 MOL     -0.346314
     42 C13        -3.8540   -1.2140    0.1350 c3        1 MOL     -0.111109
     43 C14        -3.8620    0.1130    0.8580 c         1 MOL      0.431804
     44 O6         -3.8090    0.2250    2.0350 o         1 MOL     -0.491502
     45 C15        -2.6770   -1.4400   -0.7970 c3        1 MOL     -0.014320
     46 C16        -1.3600   -1.9470   -0.1910 c         1 MOL      0.662384
     47 O7         -0.8080   -1.2420    0.7350 o         1 MOL     -0.673208
     48 O8         -0.8910   -3.0640   -0.6600 o         1 MOL     -0.673208
     49 H21        -3.3210   -2.5950    1.6590 hn        1 MOL      0.331209
     50 H22        -4.7110   -1.0660   -0.5170 h1        1 MOL      0.089606
     51 H23        -2.5440   -0.5200   -1.3620 hc        1 MOL     -0.004077
     52 H24        -2.9470   -2.2070   -1.5140 hc        1 MOL     -0.004077
     53 N5         -3.9590    1.1710    0.0810 n         1 MOL     -0.180804
     54 C17        -3.9450    2.5750    0.6060 c3        1 MOL     -0.317020
     55 C18        -2.6260    3.0010    1.3330 c         1 MOL      0.822121
     56 O9         -1.5770    2.3870    1.2280 o         1 MOL     -0.744077
     57 H25        -4.1180    1.0200   -0.9020 hn        1 MOL      0.227839
     58 H26        -4.7000    2.6730    1.3940 h1        1 MOL      0.125493
     59 H27        -4.0560    3.3310   -0.1570 h1        1 MOL      0.125493
     60 N6         -2.5880    4.1710    2.0040 n         1 MOL     -0.573496
     61 C19        -1.3840    4.8320    2.4490 c3        1 MOL      0.295058
     62 C20        -1.6940    6.3750    2.4110 c         1 MOL      0.408338
     63 O10        -2.8860    6.7690    2.5470 o         1 MOL     -0.510681
     64 C21        -0.9910    4.4830    3.9080 c3        1 MOL     -0.278511
     65 C22        -0.4930    3.0740    3.9340 c         1 MOL      0.755668
     66 O11         0.3980    2.8130    3.1520 o         1 MOL     -0.721012
     67 O12        -0.9220    2.2880    4.8310 o         1 MOL     -0.721012
     68 H28        -3.3700    4.8050    1.9310 hn        1 MOL      0.277374
     69 H29        -0.5950    4.5150    1.7780 h1        1 MOL      0.050427
     70 H30        -1.8080    4.5620    4.6210 hc        1 MOL      0.075831
     71 H31        -0.2230    5.2140    4.1720 hc        1 MOL      0.075831
     72 N7         -0.6750    7.2570    2.3540 n         1 MOL     -0.444259
     73 C23         0.6940    6.9810    2.0570 c3        1 MOL     -0.007338
     74 C24         0.9580    6.3250    0.6970 c         1 MOL      0.583376
     75 O13         0.0780    6.4260   -0.1800 o         1 MOL     -0.490569
     76 H32        -0.9660    8.2200    2.3680 hn        1 MOL      0.319726
     77 H33         1.2310    6.3560    2.7720 h1        1 MOL      0.057340
     78 H34         1.2610    7.9090    2.0280 h1        1 MOL      0.057340
     79 N8          2.1750    5.8170    0.5100 n         1 MOL     -0.676171
     80 C25         2.5610    5.2120   -0.7090 c3        1 MOL      0.153015
     81 C26         1.6530    3.9510   -0.9680 c         1 MOL      0.806715
     82 O14         1.2400    3.2260   -0.0400 o         1 MOL     -0.690620
     83 C27         4.0660    4.9090   -0.7700 c3        1 MOL      0.356730
     84 C28         4.7180    4.6910   -2.1400 c3        1 MOL     -0.388464
     85 O15         4.3220    3.7150   -0.1230 oh        1 MOL     -0.712172
     86 H35         2.7860    5.6470    1.2860 hn        1 MOL      0.346088
     87 H36         2.4110    5.9400   -1.5140 h1        1 MOL      0.031124
     88 H37         4.4810    5.7340   -0.1820 h1        1 MOL     -0.001070
     89 H38         4.8920    4.0990    0.5580 ho        1 MOL      0.444059
     90 H39         4.7750    5.6360   -2.6930 hc        1 MOL      0.093065
     91 H40         5.6810    4.1980   -2.0080 hc        1 MOL      0.093065
     92 H41         4.1330    4.0300   -2.7740 hc        1 MOL      0.093065
     93 N9          1.2630    3.7810   -2.2180 n         1 MOL     -0.528692
     94 C29         0.4380    2.6600   -2.8050 c3        1 MOL     -0.000577
     95 C30         0.7900    1.2630   -2.2220 c         1 MOL      0.380528
     96 O16         0.3450    0.7680   -1.2060 o         1 MOL     -0.587472
     97 C31        -1.0080    2.9490   -2.7020 c3        1 MOL      0.344286
     98 C32        -1.4200    4.3510   -3.2910 c3        1 MOL     -0.069171
     99 C33        -1.7860    1.9000   -3.5700 c3        1 MOL     -0.501745
    100 C34        -2.7740    4.8400   -2.8430 c3        1 MOL     -0.070423
    101 H42         1.5220    4.5040   -2.8810 hn        1 MOL      0.253546
    102 H43         0.6620    2.6030   -3.8650 h1        1 MOL      0.047539
    103 H44        -1.3460    2.8130   -1.6760 hc        1 MOL      0.054129
    104 H45        -1.4060    4.3240   -4.3780 hc        1 MOL     -0.004399
    105 H46        -0.7610    5.0280   -2.7450 hc        1 MOL     -0.004399
    106 H47        -1.6370    0.9070   -3.1450 hc        1 MOL      0.130436
    107 H48        -2.8580    2.1100   -3.5620 hc        1 MOL      0.130436
    108 H49        -1.4130    1.9420   -4.5980 hc        1 MOL      0.130436
    109 H50        -3.0680    5.7370   -3.3920 hc        1 MOL      0.027173
    110 H51        -3.5070    4.0620   -3.0560 hc        1 MOL      0.027173
    111 H52        -2.8270    5.0160   -1.7730 hc        1 MOL      0.027173
    112 N10         1.7050    0.5200   -2.9400 n         1 MOL     -0.368482
    113 C35         2.0130   -0.9130   -2.5640 c3        1 MOL     -0.006292
    114 C36         3.5530   -1.1500   -2.5430 c         1 MOL      0.458727
    115 O17         4.0350   -2.3260   -2.4270 o         1 MOL     -0.539068
    116 C37         1.3480   -1.9370   -3.4320 c3        1 MOL      0.385135
    117 C38         1.6180   -1.9640   -4.9250 c3        1 MOL     -0.348534
    118 O18        -0.0670   -1.7930   -3.3040 oh        1 MOL     -0.561227
    119 H53         2.0620    0.8430   -3.8260 hn        1 MOL      0.275425
    120 H54         1.6450   -1.1020   -1.5570 h1        1 MOL      0.131483
    121 H55         1.6220   -2.9240   -3.0460 h1        1 MOL      0.008667
    122 H56        -0.2760   -2.1750   -2.4430 ho        1 MOL      0.299153
    123 H57         2.6790   -2.1700   -5.1420 hc        1 MOL      0.079799
    124 H58         0.9490   -2.6650   -5.4190 hc        1 MOL      0.079799
    125 H59         1.4140   -0.9910   -5.3680 hc        1 MOL      0.079799
    126 N11         4.3970   -0.0930   -2.6900 n         1 MOL     -0.206287
    127 C39         5.8090   -0.1780   -2.4170 c3        1 MOL     -0.229540
    128 C40         6.1340   -0.5630   -0.9820 c         1 MOL      0.256924
    129 O19         5.7950    0.1270   -0.0030 o         1 MOL     -0.413893
    130 C41         6.4510    1.1520   -2.6940 c3        1 MOL      0.321621
    131 C42         7.9500    1.1790   -2.4540 c3        1 MOL     -0.374600
    132 O20         6.3200    1.3960   -4.0700 oh        1 MOL     -0.580569
    133 H60         3.9980    0.7280   -3.1200 hn        1 MOL      0.172245
    134 H61         6.2680   -0.8010   -3.1860 h1        1 MOL      0.166107
    135 H62         5.9830    1.9450   -2.1000 h1        1 MOL      0.067493
    136 H63         6.5000    2.3340   -4.1560 ho        1 MOL      0.381836
    137 H64         8.1940    0.7600   -1.4780 hc        1 MOL      0.101876
    138 H65         8.5560    0.6340   -3.1820 hc        1 MOL      0.101876
    139 H66         8.2900    2.2070   -2.3770 hc        1 MOL      0.101876
    140 N12         6.8510   -1.7040   -0.8630 n         1 MOL     -0.106183
    141 C43         7.1770   -2.3760    0.4010 c3        1 MOL      0.032053
    142 C44         6.0860   -2.3090    1.3780 c         1 MOL      0.582566
    143 O21         6.1180   -1.6240    2.3750 o         1 MOL     -0.526773
    144 C45         8.5400   -1.8600    0.9310 c3        1 MOL     -0.532720
    145 C46         9.6870   -1.9280    0.0020 c3        1 MOL      0.177455
    146 C47        10.1200   -3.3720   -0.3160 c3        1 MOL      0.006268
    147 C48        11.2280   -3.2950   -1.3410 c3        1 MOL     -0.010949
    148 N13        12.0230   -4.5140   -1.3650 n4        1 MOL     -0.039813
    149 H67         6.9880   -2.1740   -1.7460 hn        1 MOL      0.181263
    150 H68         7.1140   -3.4330    0.1370 h1        1 MOL      0.025435
    151 H69         8.8350   -2.3160    1.8720 hc        1 MOL      0.187268
    152 H70         8.4610   -0.7940    1.1740 hc        1 MOL      0.187268
    153 H71        10.5240   -1.5190    0.5830 hc        1 MOL     -0.008968
    154 H72         9.6580   -1.2600   -0.8590 hc        1 MOL     -0.008968
    155 H73         9.2950   -3.9740   -0.7050 hc        1 MOL      0.034121
    156 H74        10.5090   -3.8970    0.5610 hc        1 MOL      0.034121
    157 H75        11.9530   -2.5050   -1.1430 hx        1 MOL      0.050517
    158 H76        10.7590   -3.1470   -2.3160 hx        1 MOL      0.050517
    159 H77        11.5230   -5.3910   -1.2570 hn        1 MOL      0.163189
    160 H78        12.6750   -4.6740   -2.1200 hn        1 MOL      0.163189
    161 H79        12.6610   -4.4220   -0.5990 hn        1 MOL      0.163189
    162 N14         4.8880   -2.9220    1.0430 n         1 MOL     -0.499415
    163 C49         3.6670   -2.8500    1.8370 c3        1 MOL      0.326164
    164 C50         2.4470   -2.4300    0.9050 c         1 MOL      0.275960
    165 O22         2.0430   -1.2810    0.7490 o         1 MOL     -0.426062
    166 C51         3.5020   -4.1450    2.7140 c3        1 MOL     -0.063599
    167 C52         4.1300   -3.9760    4.1210 c3        1 MOL     -0.166215
    168 C53         4.0690   -5.2830    4.8810 c         1 MOL      0.734266
    169 O23         4.8290   -6.2250    4.5900 o         1 MOL     -0.633307
    170 O24         3.3150   -5.3820    5.8670 o         1 MOL     -0.633307
    171 H80         4.8090   -3.3590    0.1380 hn        1 MOL      0.278534
    172 H81         3.6820   -1.9480    2.4610 h1        1 MOL      0.049854
    173 H82         4.0510   -4.9780    2.2670 hc        1 MOL      0.023992
    174 H83         2.4460   -4.3890    2.8260 hc        1 MOL      0.023992
    175 H84         3.6990   -3.1580    4.6940 hc        1 MOL      0.022410
    176 H85         5.1990   -3.8510    3.9790 hc        1 MOL      0.022410
    177 N15         1.7790   -3.4370    0.2990 n         1 MOL     -0.403453
    178 C54         2.0800   -4.8930    0.0490 c3        1 MOL      0.080675
    179 H86         1.1490   -5.4300   -0.1320 h1        1 MOL      0.015581
    180 H87         2.7280   -4.9870   -0.8230 h1        1 MOL      0.015581
    181 H88         2.5800   -5.3160    0.9210 h1        1 MOL      0.015581
    182 H89         1.0230   -3.1000   -0.2850 hn        1 MOL      0.378328
    183 Ca1         0.5830    0.8810    1.4280 Ca        1 MOL      1.836717
    184 O25         1.6970   -0.0630    3.6790 oh        1 MOL     -0.920276
    185 H90         1.1410   -0.4950    4.3230 ho        1 MOL      0.442770
    186 H91         2.4040    0.3360    4.1990 ho        1 MOL      0.442770
    187 O26        -1.3650    0.1800    3.2270 oh        1 MOL     -0.920276
    188 H92        -2.2950    0.0480    3.0600 ho        1 MOL      0.442770
    189 H93        -1.3320    0.6770    4.0440 ho        1 MOL      0.442770
    190 O27         3.1660    1.3460    0.5840 oh        1 MOL     -0.920276
    191 H94         3.3240    2.1840    0.1430 ho        1 MOL      0.442770
    192 H95         3.9920    0.8810    0.4950 ho        1 MOL      0.442770
@<TRIPOS>BOND
     1    1    2 1   
     2    1    4 1   
     3    1    5 1   
     4    1    6 1   
     5    2    3 2   
     6    2    7 1   
     7    7    8 1   
     8    7   15 1   
     9    8    9 1   
    10    8   11 1   
    11    8   16 1   
    12    9   10 2   
    13    9   19 1   
    14   11   12 1   
    15   11   17 1   
    16   11   18 1   
    17   12   13 1   
    18   12   14 1   
    19   19   20 1   
    20   19   28 1   
    21   20   21 1   
    22   20   23 1   
    23   20   29 1   
    24   21   22 2   
    25   21   41 1   
    26   23   24 1   
    27   23   30 1   
    28   23   31 1   
    29   24   25 1   
    30   24   32 1   
    31   24   33 1   
    32   25   26 1   
    33   25   34 1   
    34   25   35 1   
    35   26   27 1   
    36   26   36 1   
    37   26   37 1   
    38   27   38 1   
    39   27   39 1   
    40   27   40 1   
    41   41   42 1   
    42   41   49 1   
    43   42   43 1   
    44   42   45 1   
    45   42   50 1   
    46   43   44 2   
    47   43   53 1   
    48   45   46 1   
    49   45   51 1   
    50   45   52 1   
    51   46   47 1   
    52   46   48 1   
    53   53   54 1   
    54   53   57 1   
    55   54   55 1   
    56   54   58 1   
    57   54   59 1   
    58   55   56 2   
    59   55   60 1   
    60   60   61 1   
    61   60   68 1   
    62   61   62 1   
    63   61   64 1   
    64   61   69 1   
    65   62   63 2   
    66   62   72 1   
    67   64   65 1   
    68   64   70 1   
    69   64   71 1   
    70   65   66 1   
    71   65   67 1   
    72   72   73 1   
    73   72   76 1   
    74   73   74 1   
    75   73   77 1   
    76   73   78 1   
    77   74   75 2   
    78   74   79 1   
    79   79   80 1   
    80   79   86 1   
    81   80   81 1   
    82   80   83 1   
    83   80   87 1   
    84   81   82 2   
    85   81   93 1   
    86   83   84 1   
    87   83   85 1   
    88   83   88 1   
    89   84   90 1   
    90   84   91 1   
    91   84   92 1   
    92   85   89 1   
    93   93   94 1   
    94   93  101 1   
    95   94   95 1   
    96   94   97 1   
    97   94  102 1   
    98   95   96 2   
    99   95  112 1   
   100   97   98 1   
   101   97   99 1   
   102   97  103 1   
   103   98  100 1   
   104   98  104 1   
   105   98  105 1   
   106   99  106 1   
   107   99  107 1   
   108   99  108 1   
   109  100  109 1   
   110  100  110 1   
   111  100  111 1   
   112  112  113 1   
   113  112  119 1   
   114  113  114 1   
   115  113  116 1   
   116  113  120 1   
   117  114  115 2   
   118  114  126 1   
   119  116  117 1   
   120  116  118 1   
   121  116  121 1   
   122  117  123 1   
   123  117  124 1   
   124  117  125 1   
   125  118  122 1   
   126  126  127 1   
   127  126  133 1   
   128  127  128 1   
   129  127  130 1   
   130  127  134 1   
   131  128  129 2   
   132  128  140 1   
   133  130  131 1   
   134  130  132 1   
   135  130  135 1   
   136  131  137 1   
   137  131  138 1   
   138  131  139 1   
   139  132  136 1   
   140  140  141 1   
   141  140  149 1   
   142  141  142 1   
   143  141  144 1   
   144  141  150 1   
   145  142  143 2   
   146  142  162 1   
   147  144  145 1   
   148  144  151 1   
   149  144  152 1   
   150  145  146 1   
   151  145  153 1   
   152  145  154 1   
   153  146  147 1   
   154  146  155 1   
   155  146  156 1   
   156  147  148 1   
   157  147  157 1   
   158  147  158 1   
   159  148  159 1   
   160  148  160 1   
   161  148  161 1   
   162  162  163 1   
   163  162  171 1   
   164  163  164 1   
   165  163  166 1   
   166  163  172 1   
   167  164  165 2   
   168  164  177 1   
   169  166  167 1   
   170  166  173 1   
   171  166  174 1   
   172  167  168 1   
   173  167  175 1   
   174  167  176 1   
   175  168  169 1   
   176  168  170 1   
   177  177  178 1   
   178  177  182 1   
   179  178  179 1   
   180  178  180 1   
   181  178  181 1   
   182  184  185 1   
   183  184  186 1   
   184  187  188 1   
   185  187  189 1   
   186  190  191 1   
   187  190  192 1   
@<TRIPOS>SUBSTRUCTURE
     1 MOL         1 TEMP              0 ****  ****    0 ROOT
