@<TRIPOS>MOLECULE
MOL
  194   186     1     0     0
SMALL
resp


@<TRIPOS>ATOM
      1 C1          1.5650    0.3330    3.4600 c3        1 MOL     -0.443036
      2 C2          2.7170    0.2400    2.3710 c         1 MOL      0.733182
      3 O1          2.5860    0.7340    1.2470 o         1 MOL     -0.643591
      4 H1          1.3080   -0.6680    3.8020 hc        1 MOL      0.129972
      5 H2          1.9110    0.9290    4.3050 hc        1 MOL      0.129972
      6 H3          0.6860    0.8030    3.0200 hc        1 MOL      0.129972
      7 N1          3.8540   -0.3250    2.7690 n         1 MOL     -0.719438
      8 C3          5.0870   -0.4190    1.8750 c3        1 MOL      0.418307
      9 C4          5.4420   -1.8340    1.3330 c         1 MOL      0.070688
     10 O2          6.5100   -1.9920    0.7300 o         1 MOL     -0.459440
     11 C5          6.2880    0.2110    2.5540 c3        1 MOL     -0.331377
     12 C6          6.5930   -0.6770    3.7910 c         1 MOL      0.867860
     13 O3          7.7090   -1.0760    3.9520 o         1 MOL     -0.745696
     14 O4          5.7430   -0.9610    4.6810 o         1 MOL     -0.745696
     15 H4          3.9230   -0.5510    3.7520 hn        1 MOL      0.341941
     16 H5          4.8140    0.1900    1.0180 h1        1 MOL      0.092488
     17 H6          6.0360    1.2170    2.8870 hc        1 MOL      0.089429
     18 H7          7.1400    0.3590    1.8980 hc        1 MOL      0.089429
     19 N2          4.6680   -2.8680    1.7030 n         1 MOL     -0.331444
     20 C7          4.7900   -4.2760    1.2390 c3        1 MOL      0.015786
     21 C8          5.2370   -4.3840   -0.3020 c         1 MOL      0.475850
     22 O5          5.9500   -5.3510   -0.6200 o         1 MOL     -0.526449
     23 C9          5.6350   -5.2370    2.0830 c3        1 MOL     -0.017034
     24 C10         6.9610   -4.5780    2.5430 c3        1 MOL      0.044069
     25 C11         7.6530   -5.5380    3.5040 c3        1 MOL     -0.188124
     26 C12         9.0030   -4.9580    3.9270 c3        1 MOL     -0.110410
     27 N3          8.9620   -3.5880    4.4220 n4        1 MOL     -0.055827
     28 H8          3.9400   -2.6240    2.3640 hn        1 MOL      0.299097
     29 H9          3.8150   -4.7530    1.2880 h1        1 MOL      0.076627
     30 H10         5.7790   -6.2350    1.6670 hc        1 MOL      0.026855
     31 H11         5.1030   -5.3590    3.0260 hc        1 MOL      0.026855
     32 H12         6.7180   -3.6730    3.1140 hc        1 MOL      0.077045
     33 H13         7.6270   -4.5260    1.6850 hc        1 MOL      0.077045
     34 H14         7.8570   -6.4510    2.9480 hc        1 MOL      0.079736
     35 H15         7.0160   -5.8060    4.3500 hc        1 MOL      0.079736
     36 H16         9.5500   -4.9620    2.9910 hx        1 MOL      0.099095
     37 H17         9.5330   -5.5700    4.6630 hx        1 MOL      0.099095
     38 H18         8.2180   -3.2570    5.0130 hn        1 MOL      0.242648
     39 H19         9.8470   -3.3320    4.8240 hn        1 MOL      0.242648
     40 H20         8.7680   -2.9200    3.6860 hn        1 MOL      0.242648
     41 N4          4.8900   -3.5060   -1.1890 n         1 MOL     -0.297714
     42 C13         5.1900   -3.5170   -2.6180 c3        1 MOL      0.041563
     43 C14         5.8610   -2.2050   -3.0570 c         1 MOL      0.515953
     44 O6          5.7570   -1.9880   -4.2340 o         1 MOL     -0.527968
     45 C15         3.8700   -3.7580   -3.3900 c3        1 MOL     -0.062300
     46 C16         2.6650   -2.8670   -2.9830 c         1 MOL      0.518229
     47 O7          2.5800   -1.6930   -3.3910 o         1 MOL     -0.674130
     48 O8          1.8180   -3.3610   -2.2270 o         1 MOL     -0.674130
     49 H21         4.4130   -2.6810   -0.8830 hn        1 MOL      0.208126
     50 H22         5.8880   -4.3310   -2.8340 h1        1 MOL      0.077575
     51 H23         3.4640   -4.7660   -3.2950 hc        1 MOL      0.032840
     52 H24         4.0150   -3.5920   -4.4490 hc        1 MOL      0.032840
     53 N5          6.5040   -1.4180   -2.1680 n         1 MOL     -0.325040
     54 C17         7.0960   -0.0880   -2.5030 c3        1 MOL     -0.110051
     55 C18         8.0680    0.3980   -1.4800 c         1 MOL      0.567814
     56 O9          9.0330   -0.3620   -1.1660 o         1 MOL     -0.524695
     57 H25         6.6690   -1.7730   -1.2400 hn        1 MOL      0.257386
     58 H26         6.2940    0.6380   -2.6930 h1        1 MOL      0.078955
     59 H27         7.6840   -0.2350   -3.4040 h1        1 MOL      0.078955
     60 N6          8.0010    1.6720   -1.0140 n         1 MOL     -0.521635
     61 C19         6.9270    2.6650   -1.0440 c3        1 MOL      0.289672
     62 C20         6.3460    2.9260    0.4080 c         1 MOL      0.383134
     63 O10         7.1490    2.9970    1.3530 o         1 MOL     -0.505494
     64 C21         7.5730    4.0000   -1.5220 c3        1 MOL     -0.416616
     65 C22         6.5930    5.0770   -2.0010 c         1 MOL      0.729847
     66 N7          6.4270    5.2160   -3.2910 n         1 MOL     -0.776878
     67 O11         5.9340    5.7240   -1.2010 o         1 MOL     -0.553636
     68 H28         8.7560    1.9910   -0.4200 hn        1 MOL      0.315418
     69 H29         6.0910    2.3520   -1.6770 h1        1 MOL      0.032143
     70 H30         8.1840    3.6580   -2.3610 hc        1 MOL      0.124121
     71 H31         8.1340    4.4300   -0.6850 hc        1 MOL      0.124121
     72 H32         6.6400    4.4340   -3.8980 hn        1 MOL      0.355970
     73 H33         5.6970    5.8760   -3.5150 hn        1 MOL      0.355970
     74 N8          5.0790    3.1380    0.6120 n         1 MOL     -0.401452
     75 C23         3.9500    3.0600   -0.3550 c3        1 MOL      0.191666
     76 C24         2.7260    3.8820    0.2540 c         1 MOL      0.536685
     77 O12         2.9750    4.8770    0.9200 o         1 MOL     -0.472867
     78 H34         4.8660    3.3800    1.5700 hn        1 MOL      0.321725
     79 H35         3.6930    2.0170   -0.5250 h1        1 MOL     -0.048482
     80 H36         4.2460    3.5820   -1.2720 h1        1 MOL     -0.048482
     81 N9          1.4360    3.4130   -0.0060 n         1 MOL     -0.375800
     82 C25         0.2360    4.0690    0.4390 c3        1 MOL      0.032247
     83 C26        -0.9790    3.2090    0.3690 c         1 MOL      0.773804
     84 O13        -0.8240    2.0430    0.0440 o         1 MOL     -0.604269
     85 C27         0.1280    5.3760   -0.3290 c3        1 MOL     -0.304709
     86 C28        -0.8430    6.3660    0.2570 ca        1 MOL      0.198723
     87 C29        -2.0150    6.7080   -0.4150 ca        1 MOL     -0.220030
     88 C30        -0.5700    6.9200    1.5390 ca        1 MOL     -0.220030
     89 C31        -2.8780    7.6610    0.0530 ca        1 MOL     -0.217263
     90 C32        -1.5030    7.8330    2.0240 ca        1 MOL     -0.217263
     91 C33        -2.6990    8.1240    1.3710 ca        1 MOL      0.315610
     92 O14        -3.5770    9.0180    1.9500 oh        1 MOL     -0.502084
     93 H37         1.3490    2.5090   -0.4260 hn        1 MOL      0.187539
     94 H38         0.3860    4.4260    1.4570 h1        1 MOL      0.060607
     95 H39        -0.1570    5.2050   -1.3630 hc        1 MOL      0.096377
     96 H40         1.0840    5.8950   -0.2620 hc        1 MOL      0.096377
     97 H41        -2.2100    6.2560   -1.3840 ha        1 MOL      0.162674
     98 H42         0.3860    6.8510    2.0600 ha        1 MOL      0.162674
     99 H43        -3.7690    7.9550   -0.4880 ha        1 MOL      0.143833
    100 H44        -1.2480    8.3210    2.9560 ha        1 MOL      0.143833
    101 H45        -3.2020    9.4780    2.7060 ho        1 MOL      0.375854
    102 N10        -2.1170    3.6890    0.7870 n         1 MOL     -0.483340
    103 C34        -3.3130    2.9260    0.9070 c3        1 MOL     -0.136950
    104 C35        -4.0050    2.6860   -0.4500 c         1 MOL      0.711641
    105 O15        -3.7150    3.4310   -1.3320 o         1 MOL     -0.557015
    106 C36        -4.3140    3.6540    1.8730 c3        1 MOL      0.280537
    107 C37        -4.9670    4.9390    1.3120 c3        1 MOL      0.014468
    108 C38        -5.3450    2.5880    2.4590 c3        1 MOL     -0.596664
    109 C39        -6.0780    5.5690    2.1970 c3        1 MOL     -0.390927
    110 H46        -2.1190    4.6730    1.0120 hn        1 MOL      0.172619
    111 H47        -2.9640    2.0110    1.3970 h1        1 MOL      0.101729
    112 H48        -3.7530    4.0170    2.7310 hc        1 MOL      0.007894
    113 H49        -5.5090    4.7020    0.3950 hc        1 MOL      0.052418
    114 H50        -4.2410    5.6740    0.9800 hc        1 MOL      0.052418
    115 H51        -4.6880    1.7360    2.6770 hc        1 MOL      0.162895
    116 H52        -5.7510    3.0000    3.3770 hc        1 MOL      0.162895
    117 H53        -6.1290    2.3290    1.7480 hc        1 MOL      0.162895
    118 H54        -6.4140    6.4870    1.7110 hc        1 MOL      0.107424
    119 H55        -6.8650    4.8140    2.1980 hc        1 MOL      0.107424
    120 H56        -5.6420    5.7410    3.1800 hc        1 MOL      0.107424
    121 N11        -4.8140    1.6360   -0.4940 n         1 MOL     -0.781440
    122 C40        -5.3110    1.1740   -1.7730 c3        1 MOL      0.728193
    123 C41        -5.6400   -0.3410   -1.7250 c         1 MOL      0.308213
    124 O16        -5.7800   -0.9630   -0.6950 o         1 MOL     -0.411394
    125 C42        -6.4360    2.0000   -2.3450 c3        1 MOL      0.109586
    126 O17        -7.2250    2.6540   -1.4060 oh        1 MOL     -0.622440
    127 H57        -5.0480    1.1260    0.3410 hn        1 MOL      0.295862
    128 H58        -4.5220    1.2210   -2.5210 h1        1 MOL     -0.167822
    129 H59        -7.1250    1.3780   -2.9130 h1        1 MOL     -0.016401
    130 H60        -6.0060    2.7210   -3.0450 h1        1 MOL     -0.016401
    131 H61        -7.8080    3.2430   -1.8890 ho        1 MOL      0.428929
    132 N12        -5.7480   -0.9320   -2.9240 n         1 MOL     -0.327846
    133 C43        -5.8990   -2.3000   -3.2590 c3        1 MOL      0.013308
    134 C44        -6.9980   -2.9990   -2.4250 c         1 MOL      0.501511
    135 O18        -6.8750   -4.1390   -1.9220 o         1 MOL     -0.456766
    136 C45        -4.5460   -3.0860   -3.1730 c3        1 MOL     -0.148481
    137 H62        -5.6510   -0.3620   -3.7540 hn        1 MOL      0.164668
    138 H63        -6.1300   -2.5070   -4.3050 h1        1 MOL      0.103683
    139 H64        -3.8920   -2.8100   -4.0040 hc        1 MOL      0.055503
    140 H65        -3.9680   -2.7290   -2.3170 hc        1 MOL      0.055503
    141 H66        -4.6620   -4.1640   -3.2550 hc        1 MOL      0.055503
    142 N13        -8.1880   -2.3160   -2.1740 n         1 MOL     -0.672655
    143 C46        -9.3120   -2.6190   -1.2970 c3        1 MOL      0.603901
    144 C47        -9.0120   -3.0060    0.1620 c         1 MOL      0.216118
    145 O19        -9.6520   -3.8090    0.7830 o         1 MOL     -0.487531
    146 C48       -10.1590   -3.6540   -1.9650 c3        1 MOL     -0.418530
    147 H67        -8.3230   -1.4280   -2.6420 hn        1 MOL      0.279985
    148 H68        -9.8700   -1.6880   -1.2110 h1        1 MOL     -0.051926
    149 H69       -11.0860   -3.5580   -1.4080 hc        1 MOL      0.102047
    150 H70       -10.4060   -3.3390   -2.9810 hc        1 MOL      0.102047
    151 H71        -9.7090   -4.6370   -1.8910 hc        1 MOL      0.102047
    152 N14        -7.8980   -2.5970    0.7220 n         1 MOL     -0.070410
    153 C49        -7.5150   -2.9670    2.0320 c3        1 MOL     -0.000186
    154 C50        -8.3970   -2.3530    3.1870 c         1 MOL      0.501071
    155 O20        -8.8860   -3.1080    4.0140 o         1 MOL     -0.484048
    156 C51        -6.0530   -2.6280    2.1660 c3        1 MOL      0.139646
    157 C52        -5.2500   -2.9150    3.4700 c3        1 MOL     -0.279978
    158 C53        -5.3150   -4.4790    3.6630 c         1 MOL      0.725672
    159 O21        -6.2360   -5.0500    4.2240 o         1 MOL     -0.663157
    160 O22        -4.4100   -5.1630    3.1410 o         1 MOL     -0.663157
    161 H72        -7.4140   -1.8660    0.2270 hn        1 MOL      0.067425
    162 H73        -7.6680   -4.0470    2.1460 h1        1 MOL      0.157438
    163 H74        -5.9620   -1.5390    2.0900 hc        1 MOL     -0.045106
    164 H75        -5.5400   -3.1890    1.3850 hc        1 MOL     -0.045106
    165 H76        -5.6340   -2.3330    4.3110 hc        1 MOL      0.020951
    166 H77        -4.2010   -2.6630    3.3850 hc        1 MOL      0.020951
    167 N15        -8.6700   -1.0750    3.0660 n         1 MOL     -0.355890
    168 C54        -9.8160   -0.5150    3.7410 c3        1 MOL     -0.048034
    169 H78       -10.1890   -1.2280    4.4750 h1        1 MOL      0.052236
    170 H79        -9.5260    0.4070    4.2450 h1        1 MOL      0.052236
    171 H80       -10.5980   -0.3010    3.0130 h1        1 MOL      0.052236
    172 H81        -8.2580   -0.5230    2.3240 hn        1 MOL      0.223196
    173 Ca1        -0.1470   -1.5910   -2.9040 Ca        1 MOL      1.755302
    174 O23         0.4850    1.0390   -3.6870 oh        1 MOL     -0.853859
    175 H82        -0.2380    1.5990   -3.4390 ho        1 MOL      0.419901
    176 H83         1.2090    1.6380   -3.8330 ho        1 MOL      0.419901
    177 O24         0.2330   -1.6940   -5.4480 oh        1 MOL     -0.853859
    178 H84        -0.0880   -0.9480   -5.9510 ho        1 MOL      0.419901
    179 H85         0.3940   -2.3750   -6.1050 ho        1 MOL      0.419901
    180 O25        -1.4530   -3.7130   -3.9200 oh        1 MOL     -0.853859
    181 H86        -1.0870   -4.4770   -3.4690 ho        1 MOL      0.419901
    182 H87        -1.4540   -3.9560   -4.8430 ho        1 MOL      0.419901
    183 O26        -1.1610   -3.3310   -0.8700 oh        1 MOL     -0.853859
    184 H88        -0.8950   -4.2530   -0.8200 ho        1 MOL      0.419901
    185 H89        -1.8590   -3.2500   -0.2110 ho        1 MOL      0.419901
    186 O27        -1.7740   -0.1490   -1.2110 oh        1 MOL     -0.853859
    187 H90        -2.0590   -0.7200   -0.4950 ho        1 MOL      0.419901
    188 H91        -1.6620    0.7080   -0.7960 ho        1 MOL      0.419901
    189 O28        -2.3490   -0.6790   -3.9650 oh        1 MOL     -0.853859
    190 H92        -2.9860   -0.7090   -3.2520 ho        1 MOL      0.419901
    191 H93        -2.8590   -0.3850   -4.7210 ho        1 MOL      0.419901
    192 O29         1.6620   -0.7550   -0.8020 oh        1 MOL     -0.853859
    193 H94         2.4600   -0.7100   -1.3260 ho        1 MOL      0.419901
    194 H95         1.8260   -0.1780   -0.0610 ho        1 MOL      0.419901
@<TRIPOS>BOND
     1    1    2 1   
     2    1    4 1   
     3    1    5 1   
     4    1    6 1   
     5    2    3 2   
     6    2    7 1   
     7    7    8 1   
     8    7   15 1   
     9    8    9 1   
    10    8   11 1   
    11    8   16 1   
    12    9   10 2   
    13    9   19 1   
    14   11   12 1   
    15   11   17 1   
    16   11   18 1   
    17   12   13 1   
    18   12   14 1   
    19   19   20 1   
    20   19   28 1   
    21   20   21 1   
    22   20   23 1   
    23   20   29 1   
    24   21   22 2   
    25   21   41 1   
    26   23   24 1   
    27   23   30 1   
    28   23   31 1   
    29   24   25 1   
    30   24   32 1   
    31   24   33 1   
    32   25   26 1   
    33   25   34 1   
    34   25   35 1   
    35   26   27 1   
    36   26   36 1   
    37   26   37 1   
    38   27   38 1   
    39   27   39 1   
    40   27   40 1   
    41   41   42 1   
    42   41   49 1   
    43   42   43 1   
    44   42   45 1   
    45   42   50 1   
    46   43   44 2   
    47   43   53 1   
    48   45   46 1   
    49   45   51 1   
    50   45   52 1   
    51   46   47 1   
    52   46   48 1   
    53   53   54 1   
    54   53   57 1   
    55   54   55 1   
    56   54   58 1   
    57   54   59 1   
    58   55   56 2   
    59   55   60 1   
    60   60   61 1   
    61   60   68 1   
    62   61   62 1   
    63   61   64 1   
    64   61   69 1   
    65   62   63 2   
    66   62   74 1   
    67   64   65 1   
    68   64   70 1   
    69   64   71 1   
    70   65   66 1   
    71   65   67 2   
    72   66   72 1   
    73   66   73 1   
    74   74   75 1   
    75   74   78 1   
    76   75   76 1   
    77   75   79 1   
    78   75   80 1   
    79   76   77 2   
    80   76   81 1   
    81   81   82 1   
    82   81   93 1   
    83   82   83 1   
    84   82   85 1   
    85   82   94 1   
    86   83   84 2   
    87   83  102 1   
    88   85   86 1   
    89   85   95 1   
    90   85   96 1   
    91   86   87 ar  
    92   86   88 ar  
    93   87   89 ar  
    94   87   97 1   
    95   88   90 ar  
    96   88   98 1   
    97   89   91 ar  
    98   89   99 1   
    99   90   91 ar  
   100   90  100 1   
   101   91   92 1   
   102   92  101 1   
   103  102  103 1   
   104  102  110 1   
   105  103  104 1   
   106  103  106 1   
   107  103  111 1   
   108  104  105 2   
   109  104  121 1   
   110  106  107 1   
   111  106  108 1   
   112  106  112 1   
   113  107  109 1   
   114  107  113 1   
   115  107  114 1   
   116  108  115 1   
   117  108  116 1   
   118  108  117 1   
   119  109  118 1   
   120  109  119 1   
   121  109  120 1   
   122  121  122 1   
   123  121  127 1   
   124  122  123 1   
   125  122  125 1   
   126  122  128 1   
   127  123  124 2   
   128  123  132 1   
   129  125  126 1   
   130  125  129 1   
   131  125  130 1   
   132  126  131 1   
   133  132  133 1   
   134  132  137 1   
   135  133  134 1   
   136  133  136 1   
   137  133  138 1   
   138  134  135 2   
   139  134  142 1   
   140  136  139 1   
   141  136  140 1   
   142  136  141 1   
   143  142  143 1   
   144  142  147 1   
   145  143  144 1   
   146  143  146 1   
   147  143  148 1   
   148  144  145 2   
   149  144  152 1   
   150  146  149 1   
   151  146  150 1   
   152  146  151 1   
   153  152  153 1   
   154  152  161 1   
   155  153  154 1   
   156  153  156 1   
   157  153  162 1   
   158  154  155 2   
   159  154  167 1   
   160  156  157 1   
   161  156  163 1   
   162  156  164 1   
   163  157  158 1   
   164  157  165 1   
   165  157  166 1   
   166  158  159 1   
   167  158  160 1   
   168  167  168 1   
   169  167  172 1   
   170  168  169 1   
   171  168  170 1   
   172  168  171 1   
   173  174  175 1   
   174  174  176 1   
   175  177  178 1   
   176  177  179 1   
   177  180  181 1   
   178  180  182 1   
   179  183  184 1   
   180  183  185 1   
   181  186  187 1   
   182  186  188 1   
   183  189  190 1   
   184  189  191 1   
   185  192  193 1   
   186  192  194 1   
@<TRIPOS>SUBSTRUCTURE
     1 MOL         1 TEMP              0 ****  ****    0 ROOT
