@<TRIPOS>MOLECULE
MOL
  175   173     1     0     0
SMALL
resp


@<TRIPOS>ATOM
      1 C1         -6.2990    8.2760    1.4000 c3        1 MOL     -0.379761
      2 C2         -7.3010    7.3800    0.5960 c         1 MOL      0.709665
      3 O1         -7.5440    7.6420   -0.5660 o         1 MOL     -0.586357
      4 H1         -6.2980    9.2830    0.9840 hc        1 MOL      0.088629
      5 H2         -6.6060    8.3160    2.4460 hc        1 MOL      0.088629
      6 H3         -5.2960    7.8540    1.3310 hc        1 MOL      0.088629
      7 N1         -7.8780    6.3270    1.1470 n         1 MOL     -0.614155
      8 C3         -8.8030    5.3920    0.3840 c3        1 MOL      0.310795
      9 C4         -8.1310    4.3330   -0.4300 c         1 MOL      0.509787
     10 O2         -8.6130    3.8140   -1.4160 o         1 MOL     -0.539790
     11 C5         -9.7790    4.7840    1.4730 c3        1 MOL     -0.333105
     12 C6        -11.0260    4.4230    0.8090 c         1 MOL      0.772465
     13 O3        -11.5800    3.3340    1.1640 o         1 MOL     -0.740966
     14 O4        -11.6280    5.1300   -0.0300 o         1 MOL     -0.740966
     15 H4         -7.6150    6.1610    2.1130 hn        1 MOL      0.294981
     16 H5         -9.3610    5.9880   -0.3260 h1        1 MOL      0.044154
     17 H6        -10.0510    5.6410    2.1030 hc        1 MOL      0.045075
     18 H7         -9.3350    3.9940    2.0720 hc        1 MOL      0.045075
     19 N2         -6.8920    4.1230    0.0160 n         1 MOL     -0.573827
     20 C7         -5.9840    3.1890   -0.6790 c3        1 MOL      0.391268
     21 C8         -5.1470    2.4430    0.3670 c         1 MOL      0.449141
     22 O5         -4.4780    3.0450    1.1630 o         1 MOL     -0.514173
     23 C9         -5.2820    3.9900   -1.7550 c3        1 MOL     -0.386500
     24 H8         -6.6840    4.6010    0.8850 hn        1 MOL      0.265038
     25 H9         -6.5510    2.4300   -1.2310 h1        1 MOL      0.039331
     26 H10        -4.5110    4.6370   -1.3280 hc        1 MOL      0.110580
     27 H11        -5.0700    3.2980   -2.5580 hc        1 MOL      0.110580
     28 H12        -5.9620    4.6800   -2.2420 hc        1 MOL      0.110580
     29 N3         -5.1090    1.0820    0.3110 n         1 MOL     -0.417669
     30 C10        -5.7950    0.1590   -0.5950 c3        1 MOL      0.008045
     31 C11        -6.0070   -1.2980   -0.0380 c         1 MOL      0.461380
     32 O6         -5.2140   -1.7170    0.7990 o         1 MOL     -0.465017
     33 C12        -5.0060    0.0760   -1.9700 c3        1 MOL     -0.270357
     34 C13        -3.5910   -0.5020   -1.9190 c         1 MOL      0.795078
     35 O7         -3.0820   -1.1830   -2.8420 o         1 MOL     -0.712914
     36 O8         -2.8540   -0.0870   -1.0180 o         1 MOL     -0.712914
     37 H13        -4.5280    0.6290    0.9990 hn        1 MOL      0.242644
     38 H14        -6.7890    0.5490   -0.8130 h1        1 MOL      0.045210
     39 H15        -5.0590    1.0500   -2.4410 hc        1 MOL      0.053061
     40 H16        -5.6040   -0.6060   -2.5820 hc        1 MOL      0.053061
     41 N4         -6.9630   -1.9720   -0.6670 n         1 MOL     -0.404623
     42 C14        -7.2070   -3.3920   -0.4670 c3        1 MOL      0.103639
     43 C15        -7.0320   -4.2810   -1.7170 c         1 MOL      0.507828
     44 O9         -8.0310   -4.5760   -2.4240 o         1 MOL     -0.557473
     45 H17        -7.5430   -1.4130   -1.2760 hn        1 MOL      0.331899
     46 H18        -8.2400   -3.5300   -0.1640 h1        1 MOL      0.027423
     47 H19        -6.5400   -3.8330    0.2810 h1        1 MOL      0.027423
     48 N5         -5.7990   -4.7020   -2.0230 n         1 MOL     -0.489139
     49 C16        -4.5680   -4.2710   -1.3340 c3        1 MOL      0.082232
     50 C17        -4.2960   -5.0760   -0.0060 c         1 MOL      0.432938
     51 O10        -4.0720   -6.3240    0.0080 o         1 MOL     -0.549876
     52 C18        -3.4590   -4.4750   -2.3370 c3        1 MOL     -0.100545
     53 C19        -2.1510   -3.8930   -1.9280 c         1 MOL      0.559256
     54 N6         -1.2340   -3.9790   -2.8490 n         1 MOL     -0.616974
     55 O11        -1.8590   -3.3830   -0.8400 o         1 MOL     -0.637405
     56 H20        -5.7720   -5.2330   -2.8750 hn        1 MOL      0.316111
     57 H21        -4.4600   -3.2030   -1.1470 h1        1 MOL      0.058592
     58 H22        -3.7390   -4.0060   -3.2810 hc        1 MOL      0.058693
     59 H23        -3.3390   -5.5430   -2.5310 hc        1 MOL      0.058693
     60 H24        -1.2950   -4.5420   -3.6950 hn        1 MOL      0.319158
     61 H25        -0.3390   -3.6890   -2.4810 hn        1 MOL      0.319158
     62 N7         -4.1000   -4.3660    1.1170 n         1 MOL     -0.035769
     63 C20        -3.7800   -4.9290    2.4830 c3        1 MOL     -0.369589
     64 C21        -2.3530   -5.3720    2.6060 c         1 MOL      0.664230
     65 O12        -2.0930   -6.1900    3.4750 o         1 MOL     -0.580607
     66 H26        -4.3120   -3.3840    1.1140 hn        1 MOL      0.124906
     67 H27        -4.4790   -5.7460    2.6700 h1        1 MOL      0.139510
     68 H28        -3.9580   -4.1250    3.2090 h1        1 MOL      0.139510
     69 N8         -1.4330   -4.8560    1.7830 n         1 MOL     -0.457105
     70 C22         0.0500   -5.0580    1.9640 c3        1 MOL      0.112364
     71 C23         0.8690   -3.7230    1.8650 c         1 MOL      0.270683
     72 O13         0.3680   -2.5550    1.7220 o         1 MOL     -0.546769
     73 C24         0.4520   -5.9330    0.8370 c3        1 MOL      0.352595
     74 C25        -0.0550   -7.3430    1.0720 c3        1 MOL     -0.553798
     75 O14         0.0440   -5.4500   -0.4490 oh        1 MOL     -0.579126
     76 H29        -1.7170   -4.4620    0.8980 hn        1 MOL      0.337852
     77 H30         0.2660   -5.5840    2.8890 h1        1 MOL      0.050973
     78 H31         1.5390   -5.9020    0.8260 h1        1 MOL     -0.017369
     79 H32         0.8530   -5.0650   -0.7930 ho        1 MOL      0.351602
     80 H33        -1.1040   -7.2580    0.8010 hc        1 MOL      0.142681
     81 H34         0.3320   -8.1060    0.4010 hc        1 MOL      0.142681
     82 H35         0.0410   -7.6440    2.1170 hc        1 MOL      0.142681
     83 N9          2.1920   -3.8990    2.0590 n         1 MOL     -0.049962
     84 C26         3.2540   -2.8450    2.0270 c3        1 MOL      0.144579
     85 C27         4.1190   -3.0070    0.7430 c         1 MOL      0.226410
     86 O15         4.9350   -3.8800    0.6490 o         1 MOL     -0.509126
     87 C28         4.0750   -2.9900    3.2740 c3        1 MOL      0.172020
     88 C29         5.1220   -1.9080    3.4310 c3        1 MOL     -0.034706
     89 C30         3.2060   -3.0200    4.5500 c3        1 MOL     -0.357161
     90 C31         4.6410   -0.4380    3.3830 c3        1 MOL     -0.167936
     91 H36         2.4450   -4.8640    2.1710 hn        1 MOL      0.152264
     92 H37         2.8260   -1.8490    1.9560 h1        1 MOL      0.025937
     93 H38         4.6060   -3.9270    3.1580 hc        1 MOL     -0.027852
     94 H39         5.9130   -2.0970    2.7060 hc        1 MOL      0.005673
     95 H40         5.5510   -2.0300    4.4300 hc        1 MOL      0.005673
     96 H41         3.8500   -3.1070    5.4210 hc        1 MOL      0.078745
     97 H42         2.7100   -2.0450    4.5550 hc        1 MOL      0.078745
     98 H43         2.4590   -3.8140    4.5470 hc        1 MOL      0.078745
     99 H44         4.0020   -0.2010    4.2320 hc        1 MOL      0.053471
    100 H45         5.4620    0.2660    3.3050 hc        1 MOL      0.053471
    101 H46         4.0630   -0.2550    2.4810 hc        1 MOL      0.053471
    102 N10         4.0150   -2.0780   -0.1800 n         1 MOL     -0.100962
    103 C32         4.4890   -2.3680   -1.5730 c3        1 MOL      0.020187
    104 C33         5.6120   -1.4450   -1.9840 c         1 MOL      0.518922
    105 O16         6.2430   -1.6430   -3.0370 o         1 MOL     -0.560151
    106 C34         3.2610   -2.4070   -2.5270 c3        1 MOL     -0.135890
    107 C35         2.1160   -3.2440   -1.8590 c         1 MOL      0.707637
    108 O17         2.3400   -4.4150   -1.6070 o         1 MOL     -0.653778
    109 O18         1.0580   -2.7000   -1.6610 o         1 MOL     -0.653778
    110 H47         3.3460   -1.3460   -0.0190 hn        1 MOL      0.129540
    111 H48         4.9340   -3.3580   -1.7080 h1        1 MOL      0.111284
    112 H49         3.5510   -2.8320   -3.4820 hc        1 MOL      0.012352
    113 H50         2.9410   -1.3780   -2.7070 hc        1 MOL      0.012352
    114 N11         5.9920   -0.4760   -1.1440 n         1 MOL     -0.447210
    115 C36         7.1460    0.4520   -1.3610 c3        1 MOL      0.163182
    116 C37         6.8610    1.8050   -0.7620 c         1 MOL      0.599062
    117 O19         6.3420    1.8550    0.3160 o         1 MOL     -0.555266
    118 C38         8.4140   -0.3050   -0.7670 c3        1 MOL     -0.266397
    119 C39         9.6220    0.5550   -0.3310 ca        1 MOL      0.116260
    120 C40         9.8530    0.7970    1.0230 ca        1 MOL     -0.210161
    121 C41        10.4290    1.2190   -1.3030 ca        1 MOL     -0.210161
    122 C42        10.7880    1.8260    1.3650 ca        1 MOL     -0.058254
    123 C43        11.4140    2.0830   -0.9430 ca        1 MOL     -0.058254
    124 C44        11.5900    2.4750    0.4270 ca        1 MOL     -0.160885
    125 H51         5.5410   -0.4140   -0.2420 hn        1 MOL      0.243637
    126 H52         7.2940    0.5160   -2.4300 h1        1 MOL      0.024792
    127 H53         8.6880   -1.1290   -1.4150 hc        1 MOL      0.118766
    128 H54         8.0270   -0.7410    0.1580 hc        1 MOL      0.118766
    129 H55         9.1940    0.4650    1.7970 ha        1 MOL      0.141821
    130 H56        10.2150    1.0440   -2.3430 ha        1 MOL      0.141821
    131 H57        10.8850    2.0800    2.4060 ha        1 MOL      0.088368
    132 H58        12.0420    2.4910   -1.7150 ha        1 MOL      0.088368
    133 H59        12.2860    3.2540    0.7100 ha        1 MOL      0.116506
    134 N12         7.1640    2.9290   -1.3860 n         1 MOL     -0.298418
    135 C45         7.0680    4.2480   -0.7870 c3        1 MOL      0.146198
    136 C46         5.7290    4.8870   -0.4620 c         1 MOL      0.353570
    137 O20         5.6640    6.1410   -0.2890 o         1 MOL     -0.530466
    138 C47         7.7970    5.1890   -1.7210 c3        1 MOL     -0.135378
    139 C48         8.7110    4.3170   -2.4610 c3        1 MOL      0.033724
    140 C49         7.8760    3.0710   -2.6600 c3        1 MOL      0.014832
    141 H60         7.6210    4.1560    0.1450 h1        1 MOL      0.057040
    142 H61         7.0960    5.6280   -2.4280 hc        1 MOL      0.065622
    143 H62         8.3110    6.0150   -1.2260 hc        1 MOL      0.065622
    144 H63         9.0060    4.7400   -3.4260 hc        1 MOL      0.002244
    145 H64         9.5830    4.0830   -1.8510 hc        1 MOL      0.002244
    146 H65         7.1860    3.1890   -3.4980 h1        1 MOL      0.045146
    147 H66         8.5680    2.3060   -3.0070 h1        1 MOL      0.045146
    148 N13         4.7080    4.0290   -0.2700 n         1 MOL     -0.095339
    149 C50         3.3560    4.4460    0.1170 c3        1 MOL     -0.334585
    150 C51         3.2670    4.9080    1.5590 c         1 MOL      0.486810
    151 O21         2.2750    5.5360    2.0870 o         1 MOL     -0.533012
    152 C52         2.4110    3.3190   -0.2330 c3        1 MOL      0.113158
    153 C53         2.6720    1.9540    0.3310 c3        1 MOL      0.085802
    154 C54         1.4650    1.0160    0.2510 c         1 MOL      0.777750
    155 O22         0.2840    1.3540    0.4220 o         1 MOL     -0.767956
    156 O23         1.6460   -0.1460    0.0280 o         1 MOL     -0.767956
    157 H67         4.9100    3.0520   -0.4010 hn        1 MOL      0.062106
    158 H68         3.0950    5.3620   -0.4260 h1        1 MOL      0.179602
    159 H69         2.1530    3.2680   -1.2830 hc        1 MOL      0.003625
    160 H70         1.3990    3.5250    0.1250 hc        1 MOL      0.003625
    161 H71         3.0060    1.9170    1.3700 hc        1 MOL     -0.050308
    162 H72         3.4650    1.5430   -0.2810 hc        1 MOL     -0.050308
    163 N14         4.3170    4.7000    2.3410 n         1 MOL     -0.136131
    164 C55         4.4770    5.0040    3.7820 c3        1 MOL     -0.251510
    165 H73         4.5570    6.0820    3.9190 h1        1 MOL      0.105504
    166 H74         3.6120    4.6310    4.3310 h1        1 MOL      0.105504
    167 H75         5.3810    4.5230    4.1570 h1        1 MOL      0.105504
    168 H76         5.1500    4.4370    1.8390 hn        1 MOL      0.194476
    169 Ca1        -0.6210   -1.0790   -0.3760 Ca        1 MOL      1.764602
    170 O24         0.1050    0.0470   -2.7790 oh        1 MOL     -0.889514
    171 H77         0.8300    0.6660   -2.8900 ho        1 MOL      0.425612
    172 H78        -0.0680   -0.2570   -3.6770 ho        1 MOL      0.425612
    173 O25        -2.5100   -1.3150    1.5380 oh        1 MOL     -0.889514
    174 H79        -3.4440   -1.4900    1.4410 ho        1 MOL      0.425612
    175 H80        -2.4610   -0.4320    1.9100 ho        1 MOL      0.425612
@<TRIPOS>BOND
     1    1    2 1   
     2    1    4 1   
     3    1    5 1   
     4    1    6 1   
     5    2    3 2   
     6    2    7 1   
     7    7    8 1   
     8    7   15 1   
     9    8    9 1   
    10    8   11 1   
    11    8   16 1   
    12    9   10 2   
    13    9   19 1   
    14   11   12 1   
    15   11   17 1   
    16   11   18 1   
    17   12   13 1   
    18   12   14 1   
    19   19   20 1   
    20   19   24 1   
    21   20   21 1   
    22   20   23 1   
    23   20   25 1   
    24   21   22 2   
    25   21   29 1   
    26   23   26 1   
    27   23   27 1   
    28   23   28 1   
    29   29   30 1   
    30   29   37 1   
    31   30   31 1   
    32   30   33 1   
    33   30   38 1   
    34   31   32 2   
    35   31   41 1   
    36   33   34 1   
    37   33   39 1   
    38   33   40 1   
    39   34   35 1   
    40   34   36 1   
    41   41   42 1   
    42   41   45 1   
    43   42   43 1   
    44   42   46 1   
    45   42   47 1   
    46   43   44 2   
    47   43   48 1   
    48   48   49 1   
    49   48   56 1   
    50   49   50 1   
    51   49   52 1   
    52   49   57 1   
    53   50   51 2   
    54   50   62 1   
    55   52   53 1   
    56   52   58 1   
    57   52   59 1   
    58   53   54 1   
    59   53   55 2   
    60   54   60 1   
    61   54   61 1   
    62   62   63 1   
    63   62   66 1   
    64   63   64 1   
    65   63   67 1   
    66   63   68 1   
    67   64   65 2   
    68   64   69 1   
    69   69   70 1   
    70   69   76 1   
    71   70   71 1   
    72   70   73 1   
    73   70   77 1   
    74   71   72 2   
    75   71   83 1   
    76   73   74 1   
    77   73   75 1   
    78   73   78 1   
    79   74   80 1   
    80   74   81 1   
    81   74   82 1   
    82   75   79 1   
    83   83   84 1   
    84   83   91 1   
    85   84   85 1   
    86   84   87 1   
    87   84   92 1   
    88   85   86 2   
    89   85  102 1   
    90   87   88 1   
    91   87   89 1   
    92   87   93 1   
    93   88   90 1   
    94   88   94 1   
    95   88   95 1   
    96   89   96 1   
    97   89   97 1   
    98   89   98 1   
    99   90   99 1   
   100   90  100 1   
   101   90  101 1   
   102  102  103 1   
   103  102  110 1   
   104  103  104 1   
   105  103  106 1   
   106  103  111 1   
   107  104  105 2   
   108  104  114 1   
   109  106  107 1   
   110  106  112 1   
   111  106  113 1   
   112  107  108 1   
   113  107  109 1   
   114  114  115 1   
   115  114  125 1   
   116  115  116 1   
   117  115  118 1   
   118  115  126 1   
   119  116  117 2   
   120  116  134 1   
   121  118  119 1   
   122  118  127 1   
   123  118  128 1   
   124  119  120 ar  
   125  119  121 ar  
   126  120  122 ar  
   127  120  129 1   
   128  121  123 ar  
   129  121  130 1   
   130  122  124 ar  
   131  122  131 1   
   132  123  124 ar  
   133  123  132 1   
   134  124  133 1   
   135  134  135 1   
   136  134  140 1   
   137  135  136 1   
   138  135  138 1   
   139  135  141 1   
   140  136  137 2   
   141  136  148 1   
   142  138  139 1   
   143  138  142 1   
   144  138  143 1   
   145  139  140 1   
   146  139  144 1   
   147  139  145 1   
   148  140  146 1   
   149  140  147 1   
   150  148  149 1   
   151  148  157 1   
   152  149  150 1   
   153  149  152 1   
   154  149  158 1   
   155  150  151 2   
   156  150  163 1   
   157  152  153 1   
   158  152  159 1   
   159  152  160 1   
   160  153  154 1   
   161  153  161 1   
   162  153  162 1   
   163  154  155 1   
   164  154  156 1   
   165  163  164 1   
   166  163  168 1   
   167  164  165 1   
   168  164  166 1   
   169  164  167 1   
   170  170  171 1   
   171  170  172 1   
   172  173  174 1   
   173  173  175 1   
@<TRIPOS>SUBSTRUCTURE
     1 MOL         1 TEMP              0 ****  ****    0 ROOT
