@<TRIPOS>MOLECULE
MOL
  181   177     1     0     0
SMALL
resp


@<TRIPOS>ATOM
      1 C1          1.6150    6.9340   -2.0210 c3        1 MOL     -0.357455
      2 C2          2.9470    6.3780   -1.5470 c         1 MOL      0.665236
      3 O1          3.2980    6.7800   -0.3820 o         1 MOL     -0.568707
      4 H1          0.8040    6.4480   -1.4770 hc        1 MOL      0.090740
      5 H2          1.5830    8.0080   -1.8360 hc        1 MOL      0.090740
      6 H3          1.5000    6.7450   -3.0880 hc        1 MOL      0.090740
      7 N1          3.6280    5.4070   -2.2490 n         1 MOL     -0.574795
      8 C3          4.8360    4.8430   -1.7800 c3        1 MOL      0.052743
      9 C4          4.7790    3.7670   -0.6130 c         1 MOL      0.725225
     10 O2          3.9290    2.8940   -0.5900 o         1 MOL     -0.637379
     11 C5          5.4900    4.1760   -3.0690 c3        1 MOL     -0.086647
     12 C6          6.8010    3.4790   -2.7970 c         1 MOL      0.753904
     13 O3          7.8020    4.1850   -2.6620 o         1 MOL     -0.745371
     14 O4          6.8080    2.2420   -2.7590 o         1 MOL     -0.745371
     15 H4          3.2300    5.0390   -3.1040 hn        1 MOL      0.324958
     16 H5          5.5620    5.5950   -1.4920 h1        1 MOL      0.067972
     17 H6          5.7970    4.9360   -3.7890 hc        1 MOL     -0.028020
     18 H7          4.8150    3.4820   -3.5720 hc        1 MOL     -0.028020
     19 N2          5.6240    3.9450    0.4130 n         1 MOL     -0.611474
     20 C7          5.5640    3.2290    1.7110 c3        1 MOL      0.362795
     21 C8          4.4310    3.5810    2.6240 c         1 MOL      0.394863
     22 O5          3.9510    4.7200    2.8130 o         1 MOL     -0.515917
     23 C9          6.8830    3.3720    2.3440 c3        1 MOL     -0.399759
     24 H8          6.1360    4.8180    0.4900 hn        1 MOL      0.306475
     25 H9          5.3940    2.1860    1.4610 h1        1 MOL      0.075944
     26 H10         6.8640    2.7440    3.2360 hc        1 MOL      0.100726
     27 H11         7.6960    3.0430    1.7090 hc        1 MOL      0.100726
     28 H12         7.0370    4.4300    2.5400 hc        1 MOL      0.100726
     29 N3          3.8800    2.6290    3.4590 n         1 MOL     -0.419884
     30 C10         4.3560    1.2270    3.8690 c3        1 MOL      0.056223
     31 C11         4.3590    0.2360    2.7050 c         1 MOL      0.467186
     32 O6          3.4460    0.2600    1.8800 o         1 MOL     -0.471676
     33 C12         3.5080    0.6090    5.0010 c3        1 MOL     -0.283473
     34 C13         2.0170    0.5660    4.8960 c         1 MOL      0.746571
     35 O7          1.5040    0.8850    3.7930 o         1 MOL     -0.682029
     36 O8          1.3500   -0.0170    5.7420 o         1 MOL     -0.682029
     37 H13         3.0190    2.9420    3.8790 hn        1 MOL      0.280361
     38 H14         5.3430    1.3380    4.2960 h1        1 MOL      0.064064
     39 H15         3.8720    1.0990    5.9080 hc        1 MOL      0.046280
     40 H16         3.9100   -0.3930    5.1130 hc        1 MOL      0.046280
     41 N4          5.4220   -0.5000    2.5990 n         1 MOL     -0.387029
     42 C14         5.7040   -1.4220    1.4620 c3        1 MOL      0.109303
     43 C15         6.4380   -0.7200    0.2810 c         1 MOL      0.443508
     44 O9          6.7280    0.4850    0.3640 o         1 MOL     -0.480481
     45 H17         6.1260   -0.3160    3.2990 hn        1 MOL      0.242387
     46 H18         4.7420   -1.8580    1.1890 h1        1 MOL      0.019696
     47 H19         6.3160   -2.2350    1.8650 h1        1 MOL      0.019696
     48 N5          6.7590   -1.4210   -0.8150 n         1 MOL     -0.317741
     49 C16         6.6600   -2.8870   -1.0820 c3        1 MOL      0.037941
     50 C17         5.7140   -3.3160   -2.1630 c         1 MOL      0.527730
     51 O10         5.7090   -4.4590   -2.5590 o         1 MOL     -0.502545
     52 C18         8.1500   -3.4190   -1.4790 c3        1 MOL     -0.233447
     53 C19         9.2290   -3.0660   -0.4530 c         1 MOL      0.606635
     54 N6          9.1570   -3.4240    0.8470 n         1 MOL     -0.770548
     55 O11        10.1440   -2.3160   -0.7270 o         1 MOL     -0.512560
     56 H20         7.1460   -0.8420   -1.5460 hn        1 MOL      0.282387
     57 H21         6.3240   -3.3000   -0.1360 h1        1 MOL      0.068614
     58 H22         8.5090   -2.8680   -2.3470 hc        1 MOL      0.088796
     59 H23         8.1060   -4.4980   -1.6250 hc        1 MOL      0.088796
     60 H24         8.5320   -4.1170    1.2230 hn        1 MOL      0.349906
     61 H25         9.8980   -3.1060    1.4490 hn        1 MOL      0.349906
     62 N7          4.8290   -2.3610   -2.6660 n         1 MOL     -0.306042
     63 C20         3.9230   -2.6590   -3.7780 c3        1 MOL     -0.200224
     64 C21         2.6050   -3.2000   -3.2450 c         1 MOL      0.571602
     65 O12         1.8770   -3.9270   -3.9900 o         1 MOL     -0.580838
     66 H26         4.9710   -1.4080   -2.3400 hn        1 MOL      0.236508
     67 H27         4.4830   -3.2650   -4.4920 h1        1 MOL      0.127490
     68 H28         3.6690   -1.7050   -4.2330 h1        1 MOL      0.127490
     69 N8          2.3130   -3.0560   -1.9290 n         1 MOL     -0.323875
     70 C22         1.4760   -4.0310   -1.2360 c3        1 MOL     -0.041753
     71 C23         0.2110   -3.4130   -0.7590 c         1 MOL      0.311208
     72 O13         0.2410   -2.3300   -0.1200 o         1 MOL     -0.443935
     73 C24         2.2890   -4.6510   -0.0330 c3        1 MOL      0.241501
     74 C25         3.1110   -5.7900   -0.6160 c3        1 MOL     -0.337395
     75 O14         3.2230   -3.8360    0.6320 oh        1 MOL     -0.638999
     76 H29         2.9890   -2.5230   -1.4040 hn        1 MOL      0.242894
     77 H30         1.2570   -4.8390   -1.9330 h1        1 MOL      0.134245
     78 H31         1.6010   -4.9930    0.7360 h1        1 MOL      0.040697
     79 H32         2.9040   -3.7210    1.5290 ho        1 MOL      0.429042
     80 H33         3.5420   -6.3840    0.1970 hc        1 MOL      0.087518
     81 H34         2.5140   -6.4740   -1.2150 hc        1 MOL      0.087518
     82 H35         3.9770   -5.3740   -1.1270 hc        1 MOL      0.087518
     83 N9         -0.9220   -3.9630   -1.1310 n         1 MOL     -0.254843
     84 C26        -2.2000   -3.2520   -1.1250 c3        1 MOL     -0.083083
     85 C27        -2.9680   -3.5040    0.2120 c         1 MOL      0.341747
     86 O15        -3.2700   -4.6620    0.6280 o         1 MOL     -0.531849
     87 C28        -3.0690   -3.7580   -2.2470 c3        1 MOL      0.265579
     88 C29        -4.0890   -2.6310   -2.6160 c3        1 MOL      0.244162
     89 C30        -2.2300   -4.0350   -3.5200 c3        1 MOL     -0.345773
     90 C31        -5.2410   -3.2370   -3.4080 c3        1 MOL     -0.137958
     91 H36        -0.8570   -4.8550   -1.5920 hn        1 MOL      0.236249
     92 H37        -1.9920   -2.1920   -1.2910 h1        1 MOL      0.205605
     93 H38        -3.5420   -4.6760   -1.8980 hc        1 MOL     -0.019643
     94 H39        -3.5390   -1.8530   -3.1490 hc        1 MOL     -0.084929
     95 H40        -4.5180   -2.2630   -1.6920 hc        1 MOL     -0.084929
     96 H41        -1.9520   -3.0810   -3.9480 hc        1 MOL      0.071939
     97 H42        -1.3900   -4.6870   -3.2980 hc        1 MOL      0.071939
     98 H43        -2.8970   -4.5670   -4.1980 hc        1 MOL      0.071939
     99 H44        -5.7680   -3.9930   -2.8360 hc        1 MOL      0.005109
    100 H45        -5.9500   -2.4230   -3.6010 hc        1 MOL      0.005109
    101 H46        -4.8900   -3.6260   -4.3570 hc        1 MOL      0.005109
    102 N10        -3.3180   -2.3950    0.8460 n         1 MOL     -0.020069
    103 C32        -4.0130   -2.3750    2.1160 c3        1 MOL     -0.087595
    104 C33        -5.3920   -1.6600    2.0720 c         1 MOL      0.543531
    105 O16        -6.2850   -2.0720    2.8060 o         1 MOL     -0.554621
    106 C34        -3.0810   -1.7040    3.2120 c3        1 MOL     -0.169210
    107 C35        -1.7550   -2.4720    3.2850 c         1 MOL      0.826871
    108 O17        -1.6520   -3.5900    3.7870 o         1 MOL     -0.726151
    109 O18        -0.7090   -1.8720    2.9740 o         1 MOL     -0.726151
    110 H47        -3.0870   -1.4810    0.5040 hn        1 MOL     -0.072475
    111 H48        -4.1300   -3.3950    2.4600 h1        1 MOL      0.108950
    112 H49        -3.4810   -1.8100    4.2260 hc        1 MOL      0.045291
    113 H50        -2.9500   -0.6670    2.8950 hc        1 MOL      0.045291
    114 N11        -5.6410   -0.7220    1.1570 n         1 MOL     -0.587505
    115 C36        -6.9670   -0.0900    0.8430 c3        1 MOL      0.529462
    116 C37        -6.8660    1.3470    0.3000 c         1 MOL      0.185046
    117 O19        -7.6070    1.7370   -0.5820 o         1 MOL     -0.456001
    118 C38        -7.9150   -1.0250    0.0760 c3        1 MOL     -0.408291
    119 C39        -9.3420   -0.7590    0.4610 ca        1 MOL      0.201942
    120 C40       -10.3080   -0.4550   -0.5390 ca        1 MOL     -0.221175
    121 C41        -9.7780   -0.7680    1.8420 ca        1 MOL     -0.221175
    122 C42       -11.6080   -0.0970   -0.1370 ca        1 MOL     -0.067359
    123 C43       -11.0750   -0.5040    2.2020 ca        1 MOL     -0.067359
    124 C44       -12.0270   -0.1510    1.2050 ca        1 MOL     -0.187850
    125 H51        -4.8380   -0.2740    0.7370 hn        1 MOL      0.258555
    126 H52        -7.3850    0.1030    1.8280 h1        1 MOL     -0.009397
    127 H53        -7.6030   -2.0380    0.3330 hc        1 MOL      0.138283
    128 H54        -7.7780   -0.9190   -1.0030 hc        1 MOL      0.138283
    129 H55       -10.0290   -0.4970   -1.5780 ha        1 MOL      0.135427
    130 H56        -9.1220   -1.0010    2.6630 ha        1 MOL      0.135427
    131 H57       -12.4030    0.1170   -0.8290 ha        1 MOL      0.092992
    132 H58       -11.2430   -0.5350    3.2690 ha        1 MOL      0.092992
    133 H59       -13.0700    0.0130    1.4370 ha        1 MOL      0.105315
    134 N12        -5.9570    2.2060    0.8750 n         1 MOL      0.022943
    135 C45        -5.7740    3.4900    0.3260 c3        1 MOL     -0.092179
    136 C46        -5.1790    3.4800   -1.0730 c         1 MOL      0.296725
    137 O20        -5.4940    4.3690   -1.8350 o         1 MOL     -0.465532
    138 C47        -4.7320    4.1480    1.2360 c3        1 MOL      0.114268
    139 C48        -4.9410    3.5200    2.6160 c3        1 MOL     -0.302273
    140 C49        -5.1820    2.1040    2.1170 c3        1 MOL     -0.022727
    141 H60        -6.7680    3.9280    0.3430 h1        1 MOL      0.091332
    142 H61        -3.7170    3.9110    0.9280 hc        1 MOL      0.007502
    143 H62        -4.8430    5.2280    1.1850 hc        1 MOL      0.007502
    144 H63        -4.0140    3.5460    3.2000 hc        1 MOL      0.097803
    145 H64        -5.8150    3.8570    3.1700 hc        1 MOL      0.097803
    146 H65        -4.1790    1.6900    2.0320 h1        1 MOL      0.069257
    147 H66        -5.7290    1.5300    2.8640 h1        1 MOL      0.069257
    148 N13        -4.3400    2.4800   -1.4390 n         1 MOL     -0.067274
    149 C50        -3.7530    2.4050   -2.7890 c3        1 MOL     -0.224087
    150 C51        -4.9620    2.3940   -3.7590 c         1 MOL      0.449607
    151 O21        -5.1240    3.2170   -4.6080 o         1 MOL     -0.506215
    152 C52        -2.9380    1.1020   -3.0420 c3        1 MOL      0.147439
    153 C53        -1.8270    0.8130   -2.0370 c3        1 MOL     -0.063270
    154 C54        -2.1880    0.4250   -0.5910 c         1 MOL      0.364877
    155 O22        -1.2330    0.1210    0.1760 o         1 MOL     -0.552735
    156 O23        -3.3840    0.2490   -0.2420 o         1 MOL     -0.552735
    157 H67        -4.2110    1.7180   -0.7980 hn        1 MOL      0.192969
    158 H68        -3.1100    3.2690   -2.9750 h1        1 MOL      0.120963
    159 H69        -2.4730    1.2280   -4.0210 hc        1 MOL     -0.017650
    160 H70        -3.5860    0.2320   -2.9550 hc        1 MOL     -0.017650
    161 H71        -1.1330    1.6530   -1.9890 hc        1 MOL      0.014927
    162 H72        -1.2380   -0.0160   -2.4180 hc        1 MOL      0.014927
    163 N14        -5.9450    1.4720   -3.5580 n         1 MOL     -0.168924
    164 C55        -7.1260    1.4530   -4.4400 c3        1 MOL     -0.441048
    165 H73        -7.9130    2.0710   -4.0070 h1        1 MOL      0.151715
    166 H74        -6.8550    1.8450   -5.4200 h1        1 MOL      0.151715
    167 H75        -7.4860    0.4290   -4.5450 h1        1 MOL      0.151715
    168 H76        -5.7320    0.7630   -2.8650 hn        1 MOL      0.234217
    169 Ca1         0.9840   -0.3790    1.5230 Ca        1 MOL      1.741539
    170 O24         2.0490   -2.7040    2.7880 oh        1 MOL     -0.911332
    171 H77         1.3970   -3.4010    2.8680 ho        1 MOL      0.436160
    172 H78         2.5230   -2.7300    3.6180 ho        1 MOL      0.436160
    173 O25         2.1190   -0.1100   -1.0880 oh        1 MOL     -0.911332
    174 O26         1.5680    2.0730    0.5050 oh        1 MOL     -0.911332
    175 H79         1.3850    0.2820   -1.5610 ho        1 MOL      0.436160
    176 H80         1.2710    2.9810    0.5120 ho        1 MOL      0.436160
    177 H81         2.9050    0.2330   -1.5200 ho        1 MOL      0.436160
    178 H82         2.4500    2.1110    0.1240 ho        1 MOL      0.436160
    179 O27        -1.1560    1.3760    2.5090 oh        1 MOL     -0.911332
    180 H83        -1.3860    2.3120    2.5450 ho        1 MOL      0.436160
    181 H84        -1.6380    1.0480    1.7470 ho        1 MOL      0.436160
@<TRIPOS>BOND
     1    1    2 1   
     2    1    4 1   
     3    1    5 1   
     4    1    6 1   
     5    2    3 2   
     6    2    7 1   
     7    7    8 1   
     8    7   15 1   
     9    8    9 1   
    10    8   11 1   
    11    8   16 1   
    12    9   10 2   
    13    9   19 1   
    14   11   12 1   
    15   11   17 1   
    16   11   18 1   
    17   12   13 1   
    18   12   14 1   
    19   19   20 1   
    20   19   24 1   
    21   20   21 1   
    22   20   23 1   
    23   20   25 1   
    24   21   22 2   
    25   21   29 1   
    26   23   26 1   
    27   23   27 1   
    28   23   28 1   
    29   29   30 1   
    30   29   37 1   
    31   30   31 1   
    32   30   33 1   
    33   30   38 1   
    34   31   32 2   
    35   31   41 1   
    36   33   34 1   
    37   33   39 1   
    38   33   40 1   
    39   34   35 1   
    40   34   36 1   
    41   41   42 1   
    42   41   45 1   
    43   42   43 1   
    44   42   46 1   
    45   42   47 1   
    46   43   44 2   
    47   43   48 1   
    48   48   49 1   
    49   48   56 1   
    50   49   50 1   
    51   49   52 1   
    52   49   57 1   
    53   50   51 2   
    54   50   62 1   
    55   52   53 1   
    56   52   58 1   
    57   52   59 1   
    58   53   54 1   
    59   53   55 2   
    60   54   60 1   
    61   54   61 1   
    62   62   63 1   
    63   62   66 1   
    64   63   64 1   
    65   63   67 1   
    66   63   68 1   
    67   64   65 2   
    68   64   69 1   
    69   69   70 1   
    70   69   76 1   
    71   70   71 1   
    72   70   73 1   
    73   70   77 1   
    74   71   72 2   
    75   71   83 1   
    76   73   74 1   
    77   73   75 1   
    78   73   78 1   
    79   74   80 1   
    80   74   81 1   
    81   74   82 1   
    82   75   79 1   
    83   83   84 1   
    84   83   91 1   
    85   84   85 1   
    86   84   87 1   
    87   84   92 1   
    88   85   86 2   
    89   85  102 1   
    90   87   88 1   
    91   87   89 1   
    92   87   93 1   
    93   88   90 1   
    94   88   94 1   
    95   88   95 1   
    96   89   96 1   
    97   89   97 1   
    98   89   98 1   
    99   90   99 1   
   100   90  100 1   
   101   90  101 1   
   102  102  103 1   
   103  102  110 1   
   104  103  104 1   
   105  103  106 1   
   106  103  111 1   
   107  104  105 2   
   108  104  114 1   
   109  106  107 1   
   110  106  112 1   
   111  106  113 1   
   112  107  108 1   
   113  107  109 1   
   114  114  115 1   
   115  114  125 1   
   116  115  116 1   
   117  115  118 1   
   118  115  126 1   
   119  116  117 2   
   120  116  134 1   
   121  118  119 1   
   122  118  127 1   
   123  118  128 1   
   124  119  120 ar  
   125  119  121 ar  
   126  120  122 ar  
   127  120  129 1   
   128  121  123 ar  
   129  121  130 1   
   130  122  124 ar  
   131  122  131 1   
   132  123  124 ar  
   133  123  132 1   
   134  124  133 1   
   135  134  135 1   
   136  134  140 1   
   137  135  136 1   
   138  135  138 1   
   139  135  141 1   
   140  136  137 2   
   141  136  148 1   
   142  138  139 1   
   143  138  142 1   
   144  138  143 1   
   145  139  140 1   
   146  139  144 1   
   147  139  145 1   
   148  140  146 1   
   149  140  147 1   
   150  148  149 1   
   151  148  157 1   
   152  149  150 1   
   153  149  152 1   
   154  149  158 1   
   155  150  151 2   
   156  150  163 1   
   157  152  153 1   
   158  152  159 1   
   159  152  160 1   
   160  153  154 1   
   161  153  161 1   
   162  153  162 1   
   163  154  155 1   
   164  154  156 1   
   165  163  164 1   
   166  163  168 1   
   167  164  165 1   
   168  164  166 1   
   169  164  167 1   
   170  170  171 1   
   171  170  172 1   
   172  173  175 1   
   173  173  177 1   
   174  174  176 1   
   175  174  178 1   
   176  179  180 1   
   177  179  181 1   
@<TRIPOS>SUBSTRUCTURE
     1 MOL         1 TEMP              0 ****  ****    0 ROOT
