@<TRIPOS>MOLECULE
MOL
  189   185     1     0     0
SMALL
resp


@<TRIPOS>ATOM
      1 C1          9.2310    0.7920    1.2640 c3        1 MOL     -0.614839
      2 C2          8.1280    0.3600    0.2820 c         1 MOL      0.853058
      3 O1          6.9790    0.6630    0.5220 o         1 MOL     -0.696830
      4 H1         10.1650    0.9350    0.7210 hc        1 MOL      0.148209
      5 H2          8.9440    1.7270    1.7450 hc        1 MOL      0.148209
      6 H3          9.3660    0.0210    2.0220 hc        1 MOL      0.148209
      7 N1          8.4790   -0.2700   -0.8290 n         1 MOL     -0.542205
      8 C3          7.5220   -0.8120   -1.8180 c3        1 MOL     -0.108291
      9 C4          6.6450   -2.0210   -1.3670 c         1 MOL      0.459734
     10 O2          6.1000   -2.7110   -2.2120 o         1 MOL     -0.422881
     11 C5          8.2780   -1.1090   -3.1100 c3        1 MOL     -0.098437
     12 C6          9.4200   -2.1430   -2.9030 c         1 MOL      0.718590
     13 O3         10.0110   -2.4310   -3.9540 o         1 MOL     -0.661984
     14 O4          9.6340   -2.6660   -1.8090 o         1 MOL     -0.661984
     15 H4          9.4520   -0.5150   -0.9290 hn        1 MOL      0.270086
     16 H5          6.8670   -0.0160   -2.1780 h1        1 MOL      0.158265
     17 H6          8.5780   -0.1520   -3.5480 hc        1 MOL      0.044953
     18 H7          7.5830   -1.5020   -3.8440 hc        1 MOL      0.044953
     19 N2          6.2850   -2.1900   -0.1180 n         1 MOL     -0.381119
     20 C7          5.6650   -3.4890    0.3410 c3        1 MOL      0.101906
     21 C8          4.2380   -3.5930   -0.2370 c         1 MOL      0.304730
     22 O5          3.8830   -4.5970   -0.8950 o         1 MOL     -0.512024
     23 C9          5.7420   -3.6720    1.8780 c3        1 MOL      0.154303
     24 C10         7.3190   -3.7530    2.2970 c3        1 MOL     -0.171071
     25 C11         7.2740   -4.2170    3.7510 c3        1 MOL     -0.032546
     26 C12         8.6860   -4.2650    4.3320 c3        1 MOL      0.115130
     27 N3          8.7810   -4.3920    5.8070 n4        1 MOL     -0.311334
     28 H8          6.5910   -1.4920    0.5350 hn        1 MOL      0.236403
     29 H9          6.2030   -4.3020   -0.1340 h1        1 MOL      0.097789
     30 H10         5.1990   -4.5480    2.2250 hc        1 MOL     -0.031875
     31 H11         5.2550   -2.8000    2.3050 hc        1 MOL     -0.031875
     32 H12         7.7200   -2.7500    2.1760 hc        1 MOL      0.063833
     33 H13         7.7470   -4.4690    1.5960 hc        1 MOL      0.063833
     34 H14         6.8930   -5.2370    3.7990 hc        1 MOL      0.044464
     35 H15         6.6950   -3.5850    4.4150 hc        1 MOL      0.044464
     36 H16         9.1740   -3.3040    4.1320 hx        1 MOL      0.058097
     37 H17         9.2620   -5.0300    3.8080 hx        1 MOL      0.058097
     38 H18         9.7470   -4.4340    6.1080 hn        1 MOL      0.266161
     39 H19         8.4120   -3.5690    6.2590 hn        1 MOL      0.266161
     40 H20         8.4070   -5.2400    6.2150 hn        1 MOL      0.266161
     41 N4          3.3480   -2.6330   -0.0870 n         1 MOL     -0.316976
     42 C13         3.4730   -1.3110    0.5750 c3        1 MOL      0.168210
     43 C14         3.6410   -0.1110   -0.4510 c         1 MOL      0.290440
     44 O6          3.3510   -0.1790   -1.6370 o         1 MOL     -0.465169
     45 C15         2.4070   -1.1560    1.5930 c3        1 MOL     -0.281694
     46 C16         1.0200   -1.6190    1.1560 c         1 MOL      0.739753
     47 O7          0.4160   -0.7440    0.4710 o         1 MOL     -0.689768
     48 O8          0.5490   -2.7500    1.4270 o         1 MOL     -0.689768
     49 H21         2.5110   -2.8020   -0.6250 hn        1 MOL      0.358181
     50 H22         4.3780   -1.2640    1.1760 h1        1 MOL      0.080248
     51 H23         2.3560   -0.1210    1.9500 hc        1 MOL      0.021500
     52 H24         2.6160   -1.7680    2.4710 hc        1 MOL      0.021500
     53 N5          4.0870    0.9790    0.1000 n         1 MOL     -0.175119
     54 C17         4.1130    2.3160   -0.6150 c3        1 MOL     -0.060883
     55 C18         2.7010    2.7530   -1.1970 c         1 MOL      0.335360
     56 O9          1.6700    2.2920   -0.7310 o         1 MOL     -0.554818
     57 H25         4.3970    0.9960    1.0580 hn        1 MOL      0.240650
     58 H26         4.9010    2.3840   -1.3660 h1        1 MOL      0.094447
     59 H27         4.4460    3.1070    0.0510 h1        1 MOL      0.094447
     60 N6          2.6480    3.7200   -2.0690 n         1 MOL     -0.289645
     61 C19         1.5790    4.5770   -2.6420 c3        1 MOL      0.163147
     62 C20         2.0560    6.0920   -2.7060 c         1 MOL      0.376200
     63 O10         3.2780    6.2570   -2.9510 o         1 MOL     -0.507053
     64 C21         1.1490    4.0450   -4.0480 c3        1 MOL     -0.211257
     65 C22         0.4300    2.7600   -3.9550 c         1 MOL      0.659833
     66 O11        -0.4040    2.6010   -3.0670 o         1 MOL     -0.684559
     67 O12         0.6040    1.8910   -4.8810 o         1 MOL     -0.684559
     68 H28         3.5680    4.0310   -2.3510 hn        1 MOL      0.247776
     69 H29         0.7610    4.5850   -1.9210 h1        1 MOL      0.050071
     70 H30         1.9560    4.0240   -4.7820 hc        1 MOL      0.083229
     71 H31         0.3770    4.6580   -4.5110 hc        1 MOL      0.083229
     72 N7          1.1820    7.1060   -2.7270 n         1 MOL     -0.423863
     73 C23        -0.2650    7.1060   -2.4270 c3        1 MOL     -0.007165
     74 C24        -0.6010    6.7830   -0.9910 c         1 MOL      0.519565
     75 O13         0.1670    7.0500   -0.0240 o         1 MOL     -0.510057
     76 H32         1.6040    7.9720   -2.9980 hn        1 MOL      0.330777
     77 H33        -0.7750    6.3570   -3.0240 h1        1 MOL      0.066123
     78 H34        -0.7280    8.0860   -2.5730 h1        1 MOL      0.066123
     79 N8         -1.8210    6.3300   -0.7530 n         1 MOL     -0.337780
     80 C25        -2.2730    5.7010    0.4890 c3        1 MOL     -0.082560
     81 C26        -1.6040    4.3820    0.8530 c         1 MOL      0.665222
     82 O14        -1.3610    3.5750   -0.0590 o         1 MOL     -0.676302
     83 C27        -3.8430    5.4000    0.4750 c3        1 MOL      0.311553
     84 C28        -4.3440    4.6280   -0.7330 c3        1 MOL     -0.157715
     85 O15        -4.6250    6.5980    0.7010 oh        1 MOL     -0.610719
     86 H35        -2.4020    6.1620   -1.5620 hn        1 MOL      0.265575
     87 H36        -2.0230    6.4040    1.2930 h1        1 MOL      0.078362
     88 H37        -4.0940    4.7560    1.3150 h1        1 MOL     -0.017303
     89 H38        -5.2330    6.2890    1.3700 ho        1 MOL      0.380915
     90 H39        -4.4860    5.2220   -1.6320 hc        1 MOL      0.053207
     91 H40        -3.6810    3.7740   -0.9040 hc        1 MOL      0.053207
     92 H41        -5.3030    4.1800   -0.4710 hc        1 MOL      0.053207
     93 N9         -1.3200    4.1400    2.1160 n         1 MOL     -0.594233
     94 C29        -0.5940    3.0510    2.8800 c3        1 MOL      0.233723
     95 C30        -1.1400    1.6260    2.6890 c         1 MOL      0.307958
     96 O16        -1.5490    1.2770    1.6060 o         1 MOL     -0.368533
     97 C31         0.8970    3.0420    2.5010 c3        1 MOL      0.492108
     98 C32         1.5570    4.4450    2.3780 c3        1 MOL     -0.087626
     99 C33         1.7150    2.1880    3.5510 c3        1 MOL     -0.206048
    100 C34         1.5990    5.3650    3.6620 c3        1 MOL     -0.373459
    101 H42        -1.5450    4.8780    2.7680 hn        1 MOL      0.273870
    102 H43        -0.6970    3.3110    3.9360 h1        1 MOL     -0.004362
    103 H44         1.0550    2.5550    1.5360 hc        1 MOL     -0.182147
    104 H45         1.1130    5.0690    1.6030 hc        1 MOL      0.071590
    105 H46         2.5940    4.3500    2.0410 hc        1 MOL      0.071590
    106 H47         2.7370    2.1890    3.1810 hc        1 MOL      0.024528
    107 H48         1.6190    2.5620    4.5670 hc        1 MOL      0.024528
    108 H49         1.3650    1.1610    3.6650 hc        1 MOL      0.024528
    109 H50         1.9130    4.7530    4.5140 hc        1 MOL      0.088176
    110 H51         2.3320    6.1320    3.4110 hc        1 MOL      0.088176
    111 H52         0.6380    5.8120    3.8880 hc        1 MOL      0.088176
    112 N10        -1.2430    0.8190    3.7910 n         1 MOL     -0.488656
    113 C35        -1.4630   -0.6200    3.7810 c3        1 MOL      0.248287
    114 C36        -2.9700   -0.9850    3.8590 c         1 MOL      0.333326
    115 O17        -3.4240   -1.4490    4.8710 o         1 MOL     -0.523780
    116 C37        -0.6990   -1.4330    4.7750 c3        1 MOL      0.421932
    117 C38        -0.8600   -0.9790    6.2330 c3        1 MOL     -0.044251
    118 O18         0.6400   -1.2220    4.4360 oh        1 MOL     -0.682171
    119 H53        -1.0050    1.1880    4.7070 hn        1 MOL      0.293657
    120 H54        -1.1910   -0.9950    2.7890 h1        1 MOL     -0.042280
    121 H55        -0.8360   -2.5110    4.7470 h1        1 MOL      0.007274
    122 H56         0.9750   -2.0820    4.1780 ho        1 MOL      0.412504
    123 H57         0.0700   -1.1810    6.7770 hc        1 MOL     -0.001603
    124 H58        -1.1110    0.0700    6.3440 hc        1 MOL     -0.001603
    125 H59        -1.6010   -1.5700    6.7660 hc        1 MOL     -0.001603
    126 N11        -3.7240   -0.7470    2.7710 n         1 MOL     -0.122304
    127 C39        -5.1390   -1.1540    2.4930 c3        1 MOL     -0.216794
    128 C40        -5.4040   -1.4330    1.0070 c         1 MOL      0.607897
    129 O19        -4.7610   -0.8730    0.1390 o         1 MOL     -0.494978
    130 C41        -6.1800   -0.1720    3.0820 c3        1 MOL      0.232183
    131 C42        -6.1830    1.1210    2.2100 c3        1 MOL     -0.441741
    132 O20        -7.4250   -0.7020    3.0170 oh        1 MOL     -0.563964
    133 H60        -3.2570   -0.2690    2.0080 hn        1 MOL      0.094330
    134 H61        -5.2320   -2.0990    3.0170 h1        1 MOL      0.116071
    135 H62        -5.9990    0.1030    4.1190 h1        1 MOL      0.070629
    136 H63        -7.9640   -0.4600    3.7780 ho        1 MOL      0.398296
    137 H64        -6.7840    1.8720    2.7180 hc        1 MOL      0.127491
    138 H65        -5.1620    1.5110    2.1640 hc        1 MOL      0.127491
    139 H66        -6.5260    0.9290    1.1980 hc        1 MOL      0.127491
    140 N12        -6.2770   -2.3890    0.7090 n         1 MOL     -0.424336
    141 C43        -6.8110   -2.6570   -0.6360 c3        1 MOL      0.157227
    142 C44        -5.8410   -2.4410   -1.8450 c         1 MOL      0.514903
    143 O21        -6.0220   -1.5130   -2.6800 o         1 MOL     -0.497542
    144 C45        -8.1890   -1.9790   -0.7300 c3        1 MOL     -0.530049
    145 C46        -9.2190   -2.5490    0.2550 c3        1 MOL      0.257417
    146 C47       -10.6330   -1.9290    0.1240 c3        1 MOL     -0.193082
    147 C48       -11.6780   -2.6360    0.9090 c3        1 MOL      0.079334
    148 N13       -13.0630   -2.1980    0.6560 n4        1 MOL     -0.056408
    149 H67        -6.7290   -2.8670    1.4740 hn        1 MOL      0.257210
    150 H68        -7.0510   -3.7190   -0.6560 h1        1 MOL      0.030405
    151 H69        -8.5160   -2.1120   -1.7520 hc        1 MOL      0.165626
    152 H70        -8.1160   -0.9020   -0.5810 hc        1 MOL      0.165626
    153 H71        -8.7980   -2.3280    1.2300 hc        1 MOL     -0.009652
    154 H72        -9.3520   -3.6210    0.1610 hc        1 MOL     -0.009652
    155 H73       -10.9580   -2.0850   -0.9080 hc        1 MOL      0.071724
    156 H74       -10.6210   -0.8820    0.4080 hc        1 MOL      0.071724
    157 H75       -11.5200   -2.5560    1.9870 hx        1 MOL      0.040710
    158 H76       -11.7050   -3.6810    0.5850 hx        1 MOL      0.040710
    159 H77       -13.2970   -2.2430   -0.3260 hn        1 MOL      0.165471
    160 H78       -13.6980   -2.6710    1.2760 hn        1 MOL      0.165471
    161 H79       -13.2160   -1.2120    0.8220 hn        1 MOL      0.165471
    162 N14        -4.7790   -3.3190   -1.8730 n         1 MOL     -0.554754
    163 C49        -3.5600   -3.0420   -2.6240 c3        1 MOL      0.333108
    164 C50        -2.3450   -2.5850   -1.7890 c         1 MOL      0.189166
    165 O22        -1.5550   -1.6590   -2.2350 o         1 MOL     -0.527046
    166 C51        -3.2110   -4.2730   -3.4420 c3        1 MOL     -0.098302
    167 C52        -4.2760   -4.6230   -4.5540 c3        1 MOL     -0.311416
    168 C53        -4.1020   -5.9590   -5.2770 c         1 MOL      0.711519
    169 O23        -3.1900   -6.0280   -6.1140 o         1 MOL     -0.622833
    170 O24        -4.8740   -6.9040   -5.0510 o         1 MOL     -0.622833
    171 H80        -4.8580   -4.1530   -1.3050 hn        1 MOL      0.316737
    172 H81        -3.8120   -2.2490   -3.3440 h1        1 MOL      0.047357
    173 H82        -3.0860   -5.1530   -2.8120 hc        1 MOL      0.092412
    174 H83        -2.2480   -4.1110   -3.9250 hc        1 MOL      0.092412
    175 H84        -4.2050   -3.8120   -5.2730 hc        1 MOL      0.074566
    176 H85        -5.3020   -4.5960   -4.1990 hc        1 MOL      0.074566
    177 N15        -1.9710   -3.1490   -0.6640 n         1 MOL     -0.117707
    178 C54        -2.5430   -4.3710    0.0080 c3        1 MOL      0.014556
    179 H86        -3.6220   -4.2560    0.1140 h1        1 MOL      0.013619
    180 H87        -2.3310   -5.2530   -0.5980 h1        1 MOL      0.013619
    181 H88        -2.0920   -4.4890    0.9930 h1        1 MOL      0.013619
    182 H89        -1.2270   -2.7630   -0.0890 hn        1 MOL      0.211809
    183 Ca1        -0.6330    1.1110   -0.9570 Ca        1 MOL      1.748617
    184 O25        -3.2670    1.1920   -1.6550 oh        1 MOL     -0.895649
    185 H90        -3.7940    0.4200   -1.4390 ho        1 MOL      0.432674
    186 H91        -3.8400    1.7110   -2.2300 ho        1 MOL      0.432674
    187 O26         0.8930   -0.2300   -2.8940 oh        1 MOL     -0.895649
    188 H92         1.8260   -0.2410   -2.6880 ho        1 MOL      0.432674
    189 H93         0.8220    0.3290   -3.6620 ho        1 MOL      0.432674
@<TRIPOS>BOND
     1    1    2 1   
     2    1    4 1   
     3    1    5 1   
     4    1    6 1   
     5    2    3 2   
     6    2    7 1   
     7    7    8 1   
     8    7   15 1   
     9    8    9 1   
    10    8   11 1   
    11    8   16 1   
    12    9   10 2   
    13    9   19 1   
    14   11   12 1   
    15   11   17 1   
    16   11   18 1   
    17   12   13 1   
    18   12   14 1   
    19   19   20 1   
    20   19   28 1   
    21   20   21 1   
    22   20   23 1   
    23   20   29 1   
    24   21   22 2   
    25   21   41 1   
    26   23   24 1   
    27   23   30 1   
    28   23   31 1   
    29   24   25 1   
    30   24   32 1   
    31   24   33 1   
    32   25   26 1   
    33   25   34 1   
    34   25   35 1   
    35   26   27 1   
    36   26   36 1   
    37   26   37 1   
    38   27   38 1   
    39   27   39 1   
    40   27   40 1   
    41   41   42 1   
    42   41   49 1   
    43   42   43 1   
    44   42   45 1   
    45   42   50 1   
    46   43   44 2   
    47   43   53 1   
    48   45   46 1   
    49   45   51 1   
    50   45   52 1   
    51   46   47 1   
    52   46   48 1   
    53   53   54 1   
    54   53   57 1   
    55   54   55 1   
    56   54   58 1   
    57   54   59 1   
    58   55   56 2   
    59   55   60 1   
    60   60   61 1   
    61   60   68 1   
    62   61   62 1   
    63   61   64 1   
    64   61   69 1   
    65   62   63 2   
    66   62   72 1   
    67   64   65 1   
    68   64   70 1   
    69   64   71 1   
    70   65   66 1   
    71   65   67 1   
    72   72   73 1   
    73   72   76 1   
    74   73   74 1   
    75   73   77 1   
    76   73   78 1   
    77   74   75 2   
    78   74   79 1   
    79   79   80 1   
    80   79   86 1   
    81   80   81 1   
    82   80   83 1   
    83   80   87 1   
    84   81   82 2   
    85   81   93 1   
    86   83   84 1   
    87   83   85 1   
    88   83   88 1   
    89   84   90 1   
    90   84   91 1   
    91   84   92 1   
    92   85   89 1   
    93   93   94 1   
    94   93  101 1   
    95   94   95 1   
    96   94   97 1   
    97   94  102 1   
    98   95   96 2   
    99   95  112 1   
   100   97   98 1   
   101   97   99 1   
   102   97  103 1   
   103   98  100 1   
   104   98  104 1   
   105   98  105 1   
   106   99  106 1   
   107   99  107 1   
   108   99  108 1   
   109  100  109 1   
   110  100  110 1   
   111  100  111 1   
   112  112  113 1   
   113  112  119 1   
   114  113  114 1   
   115  113  116 1   
   116  113  120 1   
   117  114  115 2   
   118  114  126 1   
   119  116  117 1   
   120  116  118 1   
   121  116  121 1   
   122  117  123 1   
   123  117  124 1   
   124  117  125 1   
   125  118  122 1   
   126  126  127 1   
   127  126  133 1   
   128  127  128 1   
   129  127  130 1   
   130  127  134 1   
   131  128  129 2   
   132  128  140 1   
   133  130  131 1   
   134  130  132 1   
   135  130  135 1   
   136  131  137 1   
   137  131  138 1   
   138  131  139 1   
   139  132  136 1   
   140  140  141 1   
   141  140  149 1   
   142  141  142 1   
   143  141  144 1   
   144  141  150 1   
   145  142  143 2   
   146  142  162 1   
   147  144  145 1   
   148  144  151 1   
   149  144  152 1   
   150  145  146 1   
   151  145  153 1   
   152  145  154 1   
   153  146  147 1   
   154  146  155 1   
   155  146  156 1   
   156  147  148 1   
   157  147  157 1   
   158  147  158 1   
   159  148  159 1   
   160  148  160 1   
   161  148  161 1   
   162  162  163 1   
   163  162  171 1   
   164  163  164 1   
   165  163  166 1   
   166  163  172 1   
   167  164  165 2   
   168  164  177 1   
   169  166  167 1   
   170  166  173 1   
   171  166  174 1   
   172  167  168 1   
   173  167  175 1   
   174  167  176 1   
   175  168  169 1   
   176  168  170 1   
   177  177  178 1   
   178  177  182 1   
   179  178  179 1   
   180  178  180 1   
   181  178  181 1   
   182  184  185 1   
   183  184  186 1   
   184  187  188 1   
   185  187  189 1   
@<TRIPOS>SUBSTRUCTURE
     1 MOL         1 TEMP              0 ****  ****    0 ROOT
