@<TRIPOS>MOLECULE
MOL
  184   179     1     0     0
SMALL
resp


@<TRIPOS>ATOM
      1 C1         -7.9920   -7.2620   -2.5920 c3        1 MOL     -0.252211
      2 C2         -6.8110   -6.8010   -1.7330 c         1 MOL      0.542952
      3 O1         -5.9850   -7.5810   -1.2290 o         1 MOL     -0.579006
      4 H1         -8.8200   -6.5620   -2.4750 hc        1 MOL      0.064538
      5 H2         -7.6910   -7.2940   -3.6380 hc        1 MOL      0.064538
      6 H3         -8.3080   -8.2550   -2.2730 hc        1 MOL      0.064538
      7 N1         -6.5460   -5.4950   -1.4610 n         1 MOL     -0.249202
      8 C3         -7.1690   -4.2540   -1.9940 c3        1 MOL     -0.010672
      9 C4         -8.2010   -3.7180   -0.9110 c         1 MOL      0.467847
     10 O2         -7.9520   -3.6700    0.2850 o         1 MOL     -0.428115
     11 C5         -6.1190   -3.2410   -2.3350 c3        1 MOL     -0.248853
     12 C6         -4.9810   -3.0780   -1.3550 c         1 MOL      0.663634
     13 O3         -3.9850   -2.3870   -1.7600 o         1 MOL     -0.657830
     14 O4         -5.0120   -3.5910   -0.2130 o         1 MOL     -0.657830
     15 H4         -5.8070   -5.2090   -0.8320 hn        1 MOL      0.183824
     16 H5         -7.5750   -4.4490   -2.9860 h1        1 MOL      0.044965
     17 H6         -6.6110   -2.2700   -2.3870 hc        1 MOL      0.092919
     18 H7         -5.6710   -3.4650   -3.3120 hc        1 MOL      0.092919
     19 N2         -9.2870   -3.1570   -1.4650 n         1 MOL     -0.463599
     20 C7        -10.4410   -2.7140   -0.6970 c3        1 MOL      0.226953
     21 C8        -10.1080   -1.4910    0.1900 c         1 MOL      0.441350
     22 O5        -10.3150   -1.4830    1.4470 o         1 MOL     -0.554183
     23 C9        -11.2620   -3.8750   -0.0040 c3        1 MOL     -0.306664
     24 H8         -9.2460   -3.0050   -2.4630 hn        1 MOL      0.277905
     25 H9        -11.1590   -2.4090   -1.4660 h1        1 MOL      0.031335
     26 H10       -12.1620   -3.3730    0.3630 hc        1 MOL      0.080090
     27 H11       -11.4740   -4.7000   -0.6770 hc        1 MOL      0.080090
     28 H12       -10.7100   -4.2940    0.8370 hc        1 MOL      0.080090
     29 N3         -9.4500   -0.4510   -0.3460 n         1 MOL     -0.512007
     30 C10        -9.2730    0.7900    0.3550 c3        1 MOL      0.164626
     31 C11        -9.5210    1.9640   -0.6060 c         1 MOL      0.452803
     32 O6         -9.2190    1.8790   -1.7950 o         1 MOL     -0.433395
     33 C12        -7.8420    0.9540    0.9200 c3        1 MOL     -0.139062
     34 C13        -7.1620   -0.3150    1.3920 c         1 MOL      0.796093
     35 O7         -7.1350   -0.7290    2.5490 o         1 MOL     -0.735647
     36 O8         -6.6030   -1.0410    0.4940 o         1 MOL     -0.735647
     37 H13        -9.1750   -0.4130   -1.3180 hn        1 MOL      0.307197
     38 H14        -9.8930    0.8320    1.2420 h1        1 MOL      0.060324
     39 H15        -7.9210    1.5340    1.8370 hc        1 MOL      0.015835
     40 H16        -7.2150    1.4220    0.1700 hc        1 MOL      0.015835
     41 N4        -10.1460    3.0340    0.0040 n         1 MOL     -0.556650
     42 C14       -10.1200    4.3100   -0.7790 c3        1 MOL      0.085858
     43 C15        -8.7730    4.9370   -1.0670 c         1 MOL      0.374815
     44 O9         -8.4840    5.3820   -2.1730 o         1 MOL     -0.496503
     45 H17       -10.3910    3.0300    0.9800 hn        1 MOL      0.331358
     46 H18       -10.7050    5.0930   -0.2880 h1        1 MOL      0.050622
     47 H19       -10.5990    4.2100   -1.7480 h1        1 MOL      0.050622
     48 N5         -7.8000    4.7200   -0.1570 n         1 MOL     -0.216365
     49 C16        -6.4820    5.3690   -0.2430 c3        1 MOL      0.053780
     50 C17        -5.2300    4.6730    0.2640 c         1 MOL      0.496511
     51 O10        -5.3580    3.8530    1.1320 o         1 MOL     -0.492020
     52 C18        -6.6040    6.8280    0.4440 c3        1 MOL     -0.309336
     53 C19        -6.8430    6.7180    1.9790 c         1 MOL      0.647764
     54 N6         -8.0900    6.7010    2.4470 n         1 MOL     -0.812453
     55 O11        -5.8610    6.7170    2.7230 o         1 MOL     -0.510576
     56 H20        -8.0720    4.3690    0.7500 hn        1 MOL      0.196863
     57 H21        -6.2060    5.6060   -1.2690 h1        1 MOL      0.080858
     58 H22        -7.4910    7.3340    0.0620 hc        1 MOL      0.089387
     59 H23        -5.6940    7.3640    0.1570 hc        1 MOL      0.089387
     60 H24        -8.8280    6.8800    1.7840 hn        1 MOL      0.371256
     61 H25        -8.2440    6.3740    3.3860 hn        1 MOL      0.371256
     62 N7         -4.0190    5.1040   -0.1530 n         1 MOL     -0.385852
     63 C20        -2.7600    4.5070    0.1050 c3        1 MOL     -0.095666
     64 C21        -1.7000    5.2900   -0.5960 c         1 MOL      0.558407
     65 O12        -1.5940    6.5210   -0.5020 o         1 MOL     -0.572239
     66 H26        -4.0500    5.9430   -0.7120 hn        1 MOL      0.267362
     67 H27        -2.7890    3.5500   -0.4260 h1        1 MOL      0.116114
     68 H28        -2.5090    4.4020    1.1660 h1        1 MOL      0.116114
     69 N8         -0.7500    4.7430   -1.3080 n         1 MOL     -0.308411
     70 C22        -0.4460    3.3300   -1.5040 c3        1 MOL     -0.278121
     71 C23         1.0140    2.9950   -1.1980 c         1 MOL      0.732762
     72 O13         1.8410    3.8510   -1.0250 o         1 MOL     -0.506101
     73 C24        -0.7940    2.9330   -2.9580 c3        1 MOL      0.463211
     74 C25        -2.2910    2.9970   -3.2390 c3        1 MOL     -0.382747
     75 O14        -0.1030    3.8500   -3.8460 oh        1 MOL     -0.609795
     76 H29        -0.0290    5.4080   -1.5500 hn        1 MOL      0.279422
     77 H30        -1.0540    2.6920   -0.8670 h1        1 MOL      0.090550
     78 H31        -0.4280    1.9410   -3.2080 h1        1 MOL     -0.017886
     79 H32         0.8190    3.5970   -3.7870 ho        1 MOL      0.379467
     80 H33        -2.8200    2.3860   -2.5090 hc        1 MOL      0.103013
     81 H34        -2.5890    4.0140   -2.9690 hc        1 MOL      0.103013
     82 H35        -2.5050    2.7330   -4.2670 hc        1 MOL      0.103013
     83 N9          1.2650    1.7020   -0.9580 n         1 MOL     -0.694769
     84 C26         2.5700    1.0470   -0.5980 c3        1 MOL     -0.020421
     85 C27         3.5770    0.9570   -1.7940 c         1 MOL      0.646090
     86 O15         3.1700    0.4030   -2.7910 o         1 MOL     -0.565383
     87 C28         2.2520   -0.2910    0.0770 c3        1 MOL      0.042844
     88 C29         1.4320   -0.1580    1.4000 c3        1 MOL      0.247770
     89 C30         3.4330   -1.2730    0.2370 c3        1 MOL     -0.169425
     90 C31         0.7480   -1.3760    2.0490 c3        1 MOL     -0.274196
     91 H36         0.4790    1.0720   -0.9800 hn        1 MOL      0.344244
     92 H37         3.0540    1.6520    0.1780 h1        1 MOL      0.114743
     93 H38         1.5140   -0.7490   -0.5820 hc        1 MOL      0.013243
     94 H39         0.5660    0.4800    1.2390 hc        1 MOL     -0.053533
     95 H40         2.0210    0.3550    2.1500 hc        1 MOL     -0.053533
     96 H41         3.7850   -1.5260   -0.7710 hc        1 MOL      0.056356
     97 H42         4.2300   -0.8000    0.7970 hc        1 MOL      0.056356
     98 H43         3.1960   -2.2690    0.6290 hc        1 MOL      0.056356
     99 H44         0.1690   -1.0640    2.9190 hc        1 MOL      0.053814
    100 H45         0.0270   -1.7290    1.3130 hc        1 MOL      0.053814
    101 H46         1.5040   -2.0950    2.3730 hc        1 MOL      0.053814
    102 N10         4.8590    1.3790   -1.7710 n         1 MOL     -0.494226
    103 C32         5.5940    1.8040   -0.6790 c3        1 MOL      0.178687
    104 C33         7.1010    1.3690   -0.8030 c         1 MOL      0.585449
    105 O16         7.7290    1.4140   -1.9080 o         1 MOL     -0.539048
    106 C34         5.5080    3.3580   -0.6490 c3        1 MOL     -0.299682
    107 C35         6.0750    3.9520    0.6940 c         1 MOL      0.716625
    108 O17         6.3140    3.1600    1.6560 o         1 MOL     -0.715463
    109 O18         6.2900    5.2010    0.8010 o         1 MOL     -0.715463
    110 H47         5.3880    1.4760   -2.6180 hn        1 MOL      0.299870
    111 H48         5.2070    1.4130    0.2580 h1        1 MOL     -0.011089
    112 H49         4.4800    3.6700   -0.7970 hc        1 MOL      0.064326
    113 H50         6.1170    3.6530   -1.4960 hc        1 MOL      0.064326
    114 N11         7.7290    1.1040    0.3490 n         1 MOL     -0.664374
    115 C36         9.1850    0.9460    0.5000 c3        1 MOL      0.231365
    116 C37         9.5750    0.1600    1.7510 c         1 MOL      0.350058
    117 O19         9.0230    0.2860    2.8320 o         1 MOL     -0.482806
    118 C38         9.7840    2.3460    0.6380 c3        1 MOL     -0.266502
    119 C39        11.2530    2.4730    0.7760 ca        1 MOL      0.088634
    120 C40        11.7740    2.6260    2.1190 ca        1 MOL     -0.148063
    121 C41        12.1000    2.2320   -0.2910 ca        1 MOL     -0.148063
    122 C42        13.1670    2.6200    2.3420 ca        1 MOL     -0.132610
    123 C43        13.4490    1.9730    0.0070 ca        1 MOL     -0.132610
    124 C44        13.9810    2.2630    1.2690 ca        1 MOL     -0.111538
    125 H51         7.2520    1.3340    1.2080 hn        1 MOL      0.352113
    126 H52         9.5700    0.4720   -0.3940 h1        1 MOL      0.063665
    127 H53         9.3130    2.7020    1.5590 hc        1 MOL      0.125352
    128 H54         9.3870    2.9260   -0.1960 hc        1 MOL      0.125352
    129 H55        11.1050    2.8080    2.9390 ha        1 MOL      0.134682
    130 H56        11.7470    2.0680   -1.3000 ha        1 MOL      0.134682
    131 H57        13.5630    2.7450    3.3380 ha        1 MOL      0.100232
    132 H58        14.1400    1.7130   -0.7810 ha        1 MOL      0.100232
    133 H59        15.0530    2.2630    1.3640 ha        1 MOL      0.080788
    134 N12        10.6700   -0.6860    1.5870 n         1 MOL      0.101825
    135 C45        11.2920   -1.2370    0.3850 c3        1 MOL     -0.003660
    136 C46        10.3940   -2.1600   -0.4480 c         1 MOL      0.497566
    137 O20        10.6720   -2.3850   -1.6070 o         1 MOL     -0.554626
    138 C47        12.5060   -1.9430    0.8620 c3        1 MOL     -0.199898
    139 C48        12.1430   -2.4140    2.2360 c3        1 MOL      0.148749
    140 C49        11.2400   -1.2770    2.7410 c3        1 MOL     -0.245802
    141 H60        11.5260   -0.4050   -0.2740 h1        1 MOL      0.043417
    142 H61        12.7880   -2.8190    0.2720 hc        1 MOL      0.054201
    143 H62        13.3520   -1.3020    1.1120 hc        1 MOL      0.054201
    144 H63        11.5320   -3.3170    2.1950 hc        1 MOL     -0.013692
    145 H64        12.9820   -2.6750    2.8860 hc        1 MOL     -0.013692
    146 H65        10.5120   -1.6700    3.4580 h1        1 MOL      0.065505
    147 H66        11.7870   -0.5240    3.2980 h1        1 MOL      0.065505
    148 N13         9.3090   -2.6210    0.1410 n         1 MOL     -0.344906
    149 C50         8.3000   -3.4870   -0.4620 c3        1 MOL      0.320918
    150 C51         8.0570   -4.6810    0.5230 c         1 MOL      0.305256
    151 O21         8.0660   -4.3870    1.7280 o         1 MOL     -0.552135
    152 C52         7.0260   -2.8100   -0.7880 c3        1 MOL     -0.070570
    153 C53         7.0930   -1.8800   -2.1160 c3        1 MOL     -0.066069
    154 C54         7.1510   -2.7130   -3.4270 c         1 MOL      0.712726
    155 O22         7.4970   -3.9120   -3.4630 o         1 MOL     -0.677709
    156 O23         6.7460   -2.2040   -4.5000 o         1 MOL     -0.677709
    157 H67         9.1130   -2.3030    1.0740 hn        1 MOL      0.203837
    158 H68         8.7210   -3.8840   -1.3800 h1        1 MOL      0.012970
    159 H69         6.6080   -2.2530    0.0460 hc        1 MOL      0.012612
    160 H70         6.2500   -3.5030   -1.0860 hc        1 MOL      0.012612
    161 H71         7.9540   -1.2210   -2.0120 hc        1 MOL     -0.010064
    162 H72         6.2400   -1.1980   -2.0890 hc        1 MOL     -0.010064
    163 N14         7.7840   -5.9460    0.1410 n         1 MOL     -0.329090
    164 C55         7.6540   -6.4170   -1.2180 c3        1 MOL     -0.014354
    165 H73         8.5590   -6.9520   -1.5060 h1        1 MOL      0.037519
    166 H74         6.7970   -7.0890   -1.2900 h1        1 MOL      0.037519
    167 H75         7.5070   -5.5680   -1.8860 h1        1 MOL      0.037519
    168 H76         7.7620   -6.6260    0.8910 hn        1 MOL      0.254036
    169 Ca1        -6.0040   -3.2310    2.0830 Ca        1 MOL      1.742131
    170 O24        -4.1530   -1.4640    2.5000 oh        1 MOL     -0.861007
    171 H77        -3.3490   -1.6380    2.0090 ho        1 MOL      0.412403
    172 H78        -3.8650   -0.9260    3.2360 ho        1 MOL      0.412403
    173 O25        -3.7770   -4.6320    2.6510 oh        1 MOL     -0.861007
    174 H79        -3.7980   -5.5340    2.9690 ho        1 MOL      0.412403
    175 H80        -2.8700   -4.4870    2.3890 ho        1 MOL      0.412403
    176 O26        -6.5090   -5.8070    1.9080 oh        1 MOL     -0.861007
    177 H81        -7.4200   -6.0980    1.8190 ho        1 MOL      0.412403
    178 H82        -6.1640   -6.3170    2.6440 ho        1 MOL      0.412403
    179 O27        -6.0040   -3.5170    4.9580 oh        1 MOL     -0.861007
    180 H83        -6.4210   -2.9020    5.5710 ho        1 MOL      0.412403
    181 H84        -5.2780   -3.8950    5.4490 ho        1 MOL      0.412403
    182 O28        -8.7160   -3.6440    2.9570 oh        1 MOL     -0.861007
    183 H85        -9.2950   -3.5490    3.7150 ho        1 MOL      0.412403
    184 H86        -9.0660   -3.0270    2.3180 ho        1 MOL      0.412403
@<TRIPOS>BOND
     1    1    2 1   
     2    1    4 1   
     3    1    5 1   
     4    1    6 1   
     5    2    3 2   
     6    2    7 1   
     7    7    8 1   
     8    7   15 1   
     9    8    9 1   
    10    8   11 1   
    11    8   16 1   
    12    9   10 2   
    13    9   19 1   
    14   11   12 1   
    15   11   17 1   
    16   11   18 1   
    17   12   13 1   
    18   12   14 1   
    19   19   20 1   
    20   19   24 1   
    21   20   21 1   
    22   20   23 1   
    23   20   25 1   
    24   21   22 2   
    25   21   29 1   
    26   23   26 1   
    27   23   27 1   
    28   23   28 1   
    29   29   30 1   
    30   29   37 1   
    31   30   31 1   
    32   30   33 1   
    33   30   38 1   
    34   31   32 2   
    35   31   41 1   
    36   33   34 1   
    37   33   39 1   
    38   33   40 1   
    39   34   35 1   
    40   34   36 1   
    41   41   42 1   
    42   41   45 1   
    43   42   43 1   
    44   42   46 1   
    45   42   47 1   
    46   43   44 2   
    47   43   48 1   
    48   48   49 1   
    49   48   56 1   
    50   49   50 1   
    51   49   52 1   
    52   49   57 1   
    53   50   51 2   
    54   50   62 1   
    55   52   53 1   
    56   52   58 1   
    57   52   59 1   
    58   53   54 1   
    59   53   55 2   
    60   54   60 1   
    61   54   61 1   
    62   62   63 1   
    63   62   66 1   
    64   63   64 1   
    65   63   67 1   
    66   63   68 1   
    67   64   65 2   
    68   64   69 1   
    69   69   70 1   
    70   69   76 1   
    71   70   71 1   
    72   70   73 1   
    73   70   77 1   
    74   71   72 2   
    75   71   83 1   
    76   73   74 1   
    77   73   75 1   
    78   73   78 1   
    79   74   80 1   
    80   74   81 1   
    81   74   82 1   
    82   75   79 1   
    83   83   84 1   
    84   83   91 1   
    85   84   85 1   
    86   84   87 1   
    87   84   92 1   
    88   85   86 2   
    89   85  102 1   
    90   87   88 1   
    91   87   89 1   
    92   87   93 1   
    93   88   90 1   
    94   88   94 1   
    95   88   95 1   
    96   89   96 1   
    97   89   97 1   
    98   89   98 1   
    99   90   99 1   
   100   90  100 1   
   101   90  101 1   
   102  102  103 1   
   103  102  110 1   
   104  103  104 1   
   105  103  106 1   
   106  103  111 1   
   107  104  105 2   
   108  104  114 1   
   109  106  107 1   
   110  106  112 1   
   111  106  113 1   
   112  107  108 1   
   113  107  109 1   
   114  114  115 1   
   115  114  125 1   
   116  115  116 1   
   117  115  118 1   
   118  115  126 1   
   119  116  117 2   
   120  116  134 1   
   121  118  119 1   
   122  118  127 1   
   123  118  128 1   
   124  119  120 ar  
   125  119  121 ar  
   126  120  122 ar  
   127  120  129 1   
   128  121  123 ar  
   129  121  130 1   
   130  122  124 ar  
   131  122  131 1   
   132  123  124 ar  
   133  123  132 1   
   134  124  133 1   
   135  134  135 1   
   136  134  140 1   
   137  135  136 1   
   138  135  138 1   
   139  135  141 1   
   140  136  137 2   
   141  136  148 1   
   142  138  139 1   
   143  138  142 1   
   144  138  143 1   
   145  139  140 1   
   146  139  144 1   
   147  139  145 1   
   148  140  146 1   
   149  140  147 1   
   150  148  149 1   
   151  148  157 1   
   152  149  150 1   
   153  149  152 1   
   154  149  158 1   
   155  150  151 2   
   156  150  163 1   
   157  152  153 1   
   158  152  159 1   
   159  152  160 1   
   160  153  154 1   
   161  153  161 1   
   162  153  162 1   
   163  154  155 1   
   164  154  156 1   
   165  163  164 1   
   166  163  168 1   
   167  164  165 1   
   168  164  166 1   
   169  164  167 1   
   170  170  171 1   
   171  170  172 1   
   172  173  174 1   
   173  173  175 1   
   174  176  177 1   
   175  176  178 1   
   176  179  180 1   
   177  179  181 1   
   178  182  183 1   
   179  182  184 1   
@<TRIPOS>SUBSTRUCTURE
     1 MOL         1 TEMP              0 ****  ****    0 ROOT
