@<TRIPOS>MOLECULE
MOL
  182   178     1     0     0
SMALL
resp


@<TRIPOS>ATOM
      1 C1         -3.4940   -1.5170    6.0290 c3        1 MOL     -0.252247
      2 C2         -2.9950   -1.8380    4.5560 c         1 MOL      0.723337
      3 O1         -3.7570   -2.1100    3.6370 o         1 MOL     -0.583956
      4 H1         -3.4640   -0.4400    6.1960 hc        1 MOL      0.067114
      5 H2         -4.5160   -1.8740    6.1530 hc        1 MOL      0.067114
      6 H3         -2.8440   -2.0140    6.7500 hc        1 MOL      0.067114
      7 N1         -1.6820   -1.8600    4.4110 n         1 MOL     -0.692434
      8 C3         -1.0790   -2.0010    3.0810 c3        1 MOL      0.165736
      9 C4         -1.3990   -3.2850    2.3000 c         1 MOL      0.681940
     10 O2         -1.0670   -4.3760    2.8000 o         1 MOL     -0.524653
     11 C5          0.4390   -1.8280    3.1880 c3        1 MOL     -0.122648
     12 C6          1.1530   -1.6120    1.8590 c         1 MOL      0.601141
     13 O3          2.3450   -1.2110    1.7090 o         1 MOL     -0.750614
     14 O4          0.5070   -1.9590    0.8890 o         1 MOL     -0.750614
     15 H4         -1.0140   -1.8090    5.1620 hn        1 MOL      0.356097
     16 H5         -1.4240   -1.1280    2.5160 h1        1 MOL     -0.027789
     17 H6          0.8200   -2.7140    3.7020 hc        1 MOL      0.026073
     18 H7          0.4770   -0.8780    3.7200 hc        1 MOL      0.026073
     19 N2         -2.0760   -3.1730    1.1840 n         1 MOL     -0.366225
     20 C7         -2.4020   -4.3130    0.3090 c3        1 MOL     -0.068475
     21 C8         -1.2140   -5.2010    0.0830 c         1 MOL      0.341815
     22 O5         -1.3170   -6.4420    0.3370 o         1 MOL     -0.529452
     23 C9         -3.0940   -3.9560   -1.0060 c3        1 MOL      0.126224
     24 C10        -3.7820   -5.1410   -1.6740 c3        1 MOL      0.111062
     25 C11        -4.2930   -4.8090   -3.1200 c3        1 MOL     -0.066636
     26 C12        -5.1590   -5.8740   -3.8050 c3        1 MOL      0.091853
     27 N3         -5.7460   -5.2410   -5.0350 n4        1 MOL     -0.190490
     28 H8         -2.3590   -2.2750    0.8290 hn        1 MOL      0.236447
     29 H9         -3.1120   -4.9530    0.8240 h1        1 MOL      0.114447
     30 H10        -2.3590   -3.6770   -1.7630 hc        1 MOL     -0.035054
     31 H11        -3.7570   -3.0970   -0.9090 hc        1 MOL     -0.035054
     32 H12        -4.6000   -5.4880   -1.0350 hc        1 MOL     -0.009067
     33 H13        -3.0020   -5.8890   -1.7600 hc        1 MOL     -0.009067
     34 H14        -3.4670   -4.5180   -3.7760 hc        1 MOL      0.003833
     35 H15        -4.9320   -3.9440   -2.9640 hc        1 MOL      0.003833
     36 H16        -5.8560   -6.2240   -3.0430 hx        1 MOL      0.065826
     37 H17        -4.5390   -6.7190   -4.0890 hx        1 MOL      0.065826
     38 H18        -6.0020   -5.8820   -5.7740 hn        1 MOL      0.238575
     39 H19        -6.5330   -4.6650   -4.7540 hn        1 MOL      0.238575
     40 H20        -5.0690   -4.5680   -5.3640 hn        1 MOL      0.238575
     41 N4         -0.0700   -4.6760   -0.3540 n         1 MOL     -0.053114
     42 C13         1.1050   -5.3900   -0.8300 c3        1 MOL      0.094333
     43 C14         2.3480   -5.3090    0.0630 c         1 MOL      0.295387
     44 O6          3.3460   -6.0150   -0.1260 o         1 MOL     -0.477028
     45 C15         1.3350   -4.8950   -2.2870 c3        1 MOL     -0.572677
     46 C16         1.9070   -3.5440   -2.4040 c         1 MOL      0.920549
     47 O7          2.2160   -2.8950   -1.4400 o         1 MOL     -0.760821
     48 O8          1.9400   -3.0090   -3.5450 o         1 MOL     -0.760821
     49 H21         0.0990   -3.6760   -0.3930 hn        1 MOL      0.161657
     50 H22         0.9320   -6.4640   -0.7680 h1        1 MOL      0.089675
     51 H23         0.3640   -4.9500   -2.7760 hc        1 MOL      0.144885
     52 H24         1.8790   -5.7030   -2.7670 hc        1 MOL      0.144885
     53 N5          2.2360   -4.4420    1.1060 n         1 MOL     -0.040507
     54 C17         3.2240   -4.3180    2.2040 c3        1 MOL     -0.282357
     55 C18         4.5570   -3.6420    1.6500 c         1 MOL      0.575188
     56 O9          5.5140   -3.4630    2.3700 o         1 MOL     -0.566050
     57 H25         1.4040   -3.8710    1.1310 hn        1 MOL      0.030655
     58 H26         3.3400   -5.2830    2.6850 h1        1 MOL      0.149399
     59 H27         2.8510   -3.7370    3.0500 h1        1 MOL      0.149399
     60 N6          4.6100   -3.2460    0.4070 n         1 MOL     -0.153674
     61 C19         5.8510   -2.8270   -0.3200 c3        1 MOL     -0.223919
     62 C20         5.8490   -1.3310   -0.7790 c         1 MOL      0.712459
     63 O10         4.7840   -0.7080   -0.9570 o         1 MOL     -0.662354
     64 C21         6.1400   -3.8290   -1.4290 c3        1 MOL     -0.124679
     65 C22         6.4880   -5.2500   -0.9770 c         1 MOL      0.524697
     66 N7          6.0000   -6.2700   -1.5330 n         1 MOL     -0.646258
     67 O11         7.0900   -5.3920    0.1240 o         1 MOL     -0.527750
     68 H28         3.9080   -3.5510   -0.2630 hn        1 MOL      0.329600
     69 H29         6.6770   -2.9660    0.3910 h1        1 MOL      0.103314
     70 H30         7.0270   -3.5260   -1.9830 hc        1 MOL      0.036755
     71 H31         5.2920   -3.8910   -2.1180 hc        1 MOL      0.036755
     72 H32         5.6400   -6.2860   -2.4710 hn        1 MOL      0.334269
     73 H33         6.3740   -7.1470   -1.2040 hn        1 MOL      0.334269
     74 N8          7.0290   -0.7660   -0.9460 n         1 MOL     -0.401175
     75 C23         7.3100    0.6530   -1.2440 c3        1 MOL     -0.161042
     76 C24         6.4760    1.6110   -0.4110 c         1 MOL      0.601281
     77 O12         6.4760    1.5240    0.8150 o         1 MOL     -0.490703
     78 H34         7.7600   -1.3420   -0.5480 hn        1 MOL      0.315991
     79 H35         6.9830    0.7610   -2.2750 h1        1 MOL      0.103762
     80 H36         8.3700    0.9140   -1.2150 h1        1 MOL      0.103762
     81 N9          5.6890    2.4670   -1.0350 n         1 MOL     -0.568152
     82 C25         4.8200    3.3760   -0.3690 c3        1 MOL      0.173064
     83 C26         3.7380    2.7300    0.4690 c         1 MOL      0.343983
     84 O13         3.4840    1.5610    0.3060 o         1 MOL     -0.355039
     85 C27         4.2410    4.4840   -1.3480 c3        1 MOL     -0.073067
     86 C28         5.1000    5.6980   -1.7280 ca        1 MOL      0.053685
     87 C29         5.7190    6.5320   -0.7790 ca        1 MOL     -0.196577
     88 C30         5.3340    5.9260   -3.0890 ca        1 MOL     -0.196577
     89 C31         6.6550    7.5020   -1.1680 ca        1 MOL     -0.195888
     90 C32         6.2600    6.8570   -3.4680 ca        1 MOL     -0.195888
     91 C33         6.9470    7.6630   -2.5480 ca        1 MOL      0.297361
     92 O14         7.6670    8.6880   -2.9830 oh        1 MOL     -0.454229
     93 H37         5.5020    2.4090   -2.0230 hn        1 MOL      0.311435
     94 H38         5.5290    3.9440    0.2270 h1        1 MOL      0.083389
     95 H39         3.3320    4.7780   -0.8170 hc        1 MOL      0.024703
     96 H40         3.8270    4.0570   -2.2640 hc        1 MOL      0.024703
     97 H41         5.5050    6.4000    0.2670 ha        1 MOL      0.133234
     98 H42         4.8720    5.2760   -3.8140 ha        1 MOL      0.133234
     99 H43         7.1550    8.1540   -0.4780 ha        1 MOL      0.137622
    100 H44         6.3930    7.0150   -4.5350 ha        1 MOL      0.137622
    101 H45         7.3980    8.9430   -3.8620 ho        1 MOL      0.355716
    102 N10         3.0880    3.5610    1.3480 n         1 MOL     -0.638283
    103 C34         2.1350    3.1590    2.3740 c3        1 MOL      0.432117
    104 C35         0.8680    2.3580    1.8450 c         1 MOL      0.119456
    105 O15         0.9380    1.2670    1.2310 o         1 MOL     -0.312394
    106 C36         2.8430    2.4090    3.5110 c3        1 MOL      0.296228
    107 C37         1.9760    2.0160    4.7110 c3        1 MOL     -0.326704
    108 C38         4.0000    3.1260    4.1040 c3        1 MOL     -0.409625
    109 C39         1.2550    3.2030    5.4180 c3        1 MOL     -0.204783
    110 H46         3.3000    4.5490    1.3400 hn        1 MOL      0.319644
    111 H47         1.6950    4.0630    2.7740 h1        1 MOL     -0.043663
    112 H48         3.1860    1.4770    3.0670 hc        1 MOL      0.028420
    113 H49         2.6220    1.4190    5.3480 hc        1 MOL      0.128301
    114 H50         1.1930    1.4080    4.2690 hc        1 MOL      0.128301
    115 H51         4.1920    2.8450    5.1370 hc        1 MOL      0.098513
    116 H52         4.9270    2.9460    3.5560 hc        1 MOL      0.098513
    117 H53         3.7800    4.2010    4.0650 hc        1 MOL      0.098513
    118 H54         1.9010    4.0370    5.6890 hc        1 MOL      0.056258
    119 H55         0.3440    3.5090    4.9020 hc        1 MOL      0.056258
    120 H56         0.8650    2.8310    6.3560 hc        1 MOL      0.056258
    121 N11        -0.2660    2.8420    2.3630 n         1 MOL     -0.343023
    122 C40        -1.5570    2.0300    2.3550 c3        1 MOL      0.035113
    123 C41        -2.5750    2.4430    1.2820 c         1 MOL      0.545298
    124 O16        -3.6380    1.8190    1.2340 o         1 MOL     -0.551015
    125 C42        -2.1310    2.0460    3.7500 c3        1 MOL      0.226861
    126 O17        -2.4130    3.3770    4.1880 oh        1 MOL     -0.641561
    127 H57        -0.1520    3.6850    2.9090 hn        1 MOL      0.279125
    128 H58        -1.2680    1.0180    2.0730 h1        1 MOL      0.117893
    129 H59        -1.4300    1.6550    4.4820 h1        1 MOL      0.017028
    130 H60        -3.0330    1.4500    3.7580 h1        1 MOL      0.017028
    131 H61        -2.8910    3.3340    5.0140 ho        1 MOL      0.420833
    132 N12        -2.1640    3.2330    0.2720 n         1 MOL     -0.409964
    133 C43        -3.0600    3.3990   -0.9310 c3        1 MOL      0.081276
    134 C44        -2.5650    2.3400   -1.9370 c         1 MOL      0.681731
    135 O18        -1.3740    2.2720   -2.2920 o         1 MOL     -0.576197
    136 C45        -2.9150    4.8480   -1.4100 c3        1 MOL     -0.367068
    137 H62        -1.4560    3.9440    0.3760 hn        1 MOL      0.269524
    138 H63        -4.1010    3.2470   -0.6660 h1        1 MOL      0.111691
    139 H64        -1.8710    5.1150   -1.5730 hc        1 MOL      0.112423
    140 H65        -3.4720    5.1210   -2.2960 hc        1 MOL      0.112423
    141 H66        -3.1650    5.4920   -0.5580 hc        1 MOL      0.112423
    142 N13        -3.4160    1.3690   -2.3850 n         1 MOL     -0.749902
    143 C46        -4.8780    1.1470   -2.1470 c3        1 MOL      0.399569
    144 C47        -5.7450    2.4390   -2.5710 c         1 MOL      0.550553
    145 O19        -5.4280    3.1430   -3.5710 o         1 MOL     -0.558941
    146 C48        -5.3020   -0.2270   -2.7690 c3        1 MOL     -0.504375
    147 H67        -2.9880    0.6230   -2.9210 hn        1 MOL      0.389018
    148 H68        -5.0120    0.9670   -1.0840 h1        1 MOL      0.065785
    149 H69        -6.3040   -0.5670   -2.4700 hc        1 MOL      0.133909
    150 H70        -5.3400   -0.0700   -3.8440 hc        1 MOL      0.133909
    151 H71        -4.5870   -0.9930   -2.4840 hc        1 MOL      0.133909
    152 N14        -6.8300    2.8220   -1.8530 n         1 MOL     -0.644641
    153 C49        -7.4600    2.2860   -0.7110 c3        1 MOL     -0.028176
    154 C50        -7.8290    3.4090    0.3180 c         1 MOL      0.542269
    155 O20        -7.6430    3.2900    1.5310 o         1 MOL     -0.516881
    156 C51        -8.7090    1.4820   -1.1610 c3        1 MOL      0.298602
    157 C52        -9.5180    0.9640    0.0110 c3        1 MOL     -0.305141
    158 C53       -10.7710    0.1300   -0.4490 c         1 MOL      0.705227
    159 O21       -11.2150    0.2710   -1.5930 o         1 MOL     -0.666450
    160 O22       -11.2300   -0.7910    0.3060 o         1 MOL     -0.666450
    161 H72        -7.2210    3.6110   -2.3410 hn        1 MOL      0.334812
    162 H73        -6.7510    1.5960   -0.2470 h1        1 MOL      0.069146
    163 H74        -8.3500    0.6340   -1.7450 hc        1 MOL     -0.060189
    164 H75        -9.2670    2.2070   -1.7680 hc        1 MOL     -0.060189
    165 H76        -9.8800    1.8560    0.5220 hc        1 MOL      0.058506
    166 H77        -8.9710    0.3800    0.7520 hc        1 MOL      0.058506
    167 N15        -8.2750    4.5840   -0.1670 n         1 MOL     -0.332902
    168 C54        -8.5590    5.8590    0.5440 c3        1 MOL     -0.236385
    169 H78        -7.7070    6.5310    0.4370 h1        1 MOL      0.119310
    170 H79        -9.4450    6.3260    0.1140 h1        1 MOL      0.119310
    171 H80        -8.7310    5.6560    1.6010 h1        1 MOL      0.119310
    172 H81        -8.4250    4.5780   -1.1680 hn        1 MOL      0.267115
    173 Ca1         1.9920   -0.3970   -0.7370 Ca        1 MOL      1.717169
    174 O23        -0.5030   -0.5860   -1.6150 oh        1 MOL     -0.858260
    175 H82        -1.1340   -0.6530   -0.9020 ho        1 MOL      0.408302
    176 H83        -0.8920   -1.0890   -2.3300 ho        1 MOL      0.408302
    177 O24         1.0310    1.7930   -1.6760 oh        1 MOL     -0.858260
    178 H84         1.5570    2.2420   -2.3360 ho        1 MOL      0.408302
    179 H85         0.1370    2.0910   -1.8430 ho        1 MOL      0.408302
    180 O25         2.3450   -0.4180   -3.2920 oh        1 MOL     -0.858260
    181 H86         1.8540   -0.0890   -4.0490 ho        1 MOL      0.408302
    182 H87         2.4010   -1.3600   -3.4370 ho        1 MOL      0.408302
@<TRIPOS>BOND
     1    1    2 1   
     2    1    4 1   
     3    1    5 1   
     4    1    6 1   
     5    2    3 2   
     6    2    7 1   
     7    7    8 1   
     8    7   15 1   
     9    8    9 1   
    10    8   11 1   
    11    8   16 1   
    12    9   10 2   
    13    9   19 1   
    14   11   12 1   
    15   11   17 1   
    16   11   18 1   
    17   12   13 1   
    18   12   14 1   
    19   19   20 1   
    20   19   28 1   
    21   20   21 1   
    22   20   23 1   
    23   20   29 1   
    24   21   22 2   
    25   21   41 1   
    26   23   24 1   
    27   23   30 1   
    28   23   31 1   
    29   24   25 1   
    30   24   32 1   
    31   24   33 1   
    32   25   26 1   
    33   25   34 1   
    34   25   35 1   
    35   26   27 1   
    36   26   36 1   
    37   26   37 1   
    38   27   38 1   
    39   27   39 1   
    40   27   40 1   
    41   41   42 1   
    42   41   49 1   
    43   42   43 1   
    44   42   45 1   
    45   42   50 1   
    46   43   44 2   
    47   43   53 1   
    48   45   46 1   
    49   45   51 1   
    50   45   52 1   
    51   46   47 1   
    52   46   48 1   
    53   53   54 1   
    54   53   57 1   
    55   54   55 1   
    56   54   58 1   
    57   54   59 1   
    58   55   56 2   
    59   55   60 1   
    60   60   61 1   
    61   60   68 1   
    62   61   62 1   
    63   61   64 1   
    64   61   69 1   
    65   62   63 2   
    66   62   74 1   
    67   64   65 1   
    68   64   70 1   
    69   64   71 1   
    70   65   66 1   
    71   65   67 2   
    72   66   72 1   
    73   66   73 1   
    74   74   75 1   
    75   74   78 1   
    76   75   76 1   
    77   75   79 1   
    78   75   80 1   
    79   76   77 2   
    80   76   81 1   
    81   81   82 1   
    82   81   93 1   
    83   82   83 1   
    84   82   85 1   
    85   82   94 1   
    86   83   84 2   
    87   83  102 1   
    88   85   86 1   
    89   85   95 1   
    90   85   96 1   
    91   86   87 ar  
    92   86   88 ar  
    93   87   89 ar  
    94   87   97 1   
    95   88   90 ar  
    96   88   98 1   
    97   89   91 ar  
    98   89   99 1   
    99   90   91 ar  
   100   90  100 1   
   101   91   92 1   
   102   92  101 1   
   103  102  103 1   
   104  102  110 1   
   105  103  104 1   
   106  103  106 1   
   107  103  111 1   
   108  104  105 2   
   109  104  121 1   
   110  106  107 1   
   111  106  108 1   
   112  106  112 1   
   113  107  109 1   
   114  107  113 1   
   115  107  114 1   
   116  108  115 1   
   117  108  116 1   
   118  108  117 1   
   119  109  118 1   
   120  109  119 1   
   121  109  120 1   
   122  121  122 1   
   123  121  127 1   
   124  122  123 1   
   125  122  125 1   
   126  122  128 1   
   127  123  124 2   
   128  123  132 1   
   129  125  126 1   
   130  125  129 1   
   131  125  130 1   
   132  126  131 1   
   133  132  133 1   
   134  132  137 1   
   135  133  134 1   
   136  133  136 1   
   137  133  138 1   
   138  134  135 2   
   139  134  142 1   
   140  136  139 1   
   141  136  140 1   
   142  136  141 1   
   143  142  143 1   
   144  142  147 1   
   145  143  144 1   
   146  143  146 1   
   147  143  148 1   
   148  144  145 2   
   149  144  152 1   
   150  146  149 1   
   151  146  150 1   
   152  146  151 1   
   153  152  153 1   
   154  152  161 1   
   155  153  154 1   
   156  153  156 1   
   157  153  162 1   
   158  154  155 2   
   159  154  167 1   
   160  156  157 1   
   161  156  163 1   
   162  156  164 1   
   163  157  158 1   
   164  157  165 1   
   165  157  166 1   
   166  158  159 1   
   167  158  160 1   
   168  167  168 1   
   169  167  172 1   
   170  168  169 1   
   171  168  170 1   
   172  168  171 1   
   173  174  175 1   
   174  174  176 1   
   175  177  178 1   
   176  177  179 1   
   177  180  181 1   
   178  180  182 1   
@<TRIPOS>SUBSTRUCTURE
     1 MOL         1 TEMP              0 ****  ****    0 ROOT
