@<TRIPOS>MOLECULE
MOL
  189   185     1     0     0
SMALL
resp


@<TRIPOS>ATOM
      1 C1          3.4220    3.5040   -3.9110 c3        1 MOL     -0.317314
      2 C2          4.3900    2.6730   -3.0110 c         1 MOL      0.699046
      3 O1          4.0700    2.3970   -1.8690 o         1 MOL     -0.614566
      4 H1          2.7640    2.8290   -4.4570 hc        1 MOL      0.082209
      5 H2          2.8230    4.1670   -3.2860 hc        1 MOL      0.082209
      6 H3          4.0020    4.0970   -4.6190 hc        1 MOL      0.082209
      7 N1          5.5530    2.2100   -3.4920 n         1 MOL     -0.644812
      8 C3          6.3960    1.1120   -2.9210 c3        1 MOL      0.116478
      9 C4          5.5970    0.0290   -2.1290 c         1 MOL      0.219270
     10 O2          5.6080    0.0410   -0.8510 o         1 MOL     -0.384406
     11 C5          7.5730    1.6700   -2.1600 c3        1 MOL      0.085672
     12 C6          7.4340    2.8720   -1.2160 c         1 MOL      0.714555
     13 O3          6.8560    2.7180   -0.1110 o         1 MOL     -0.728182
     14 O4          7.9000    3.9370   -1.5920 o         1 MOL     -0.728182
     15 H4          5.7530    2.5510   -4.4190 hn        1 MOL      0.324828
     16 H5          6.8790    0.6250   -3.7740 h1        1 MOL      0.054737
     17 H6          8.2340    1.9630   -2.9840 hc        1 MOL     -0.038053
     18 H7          8.1080    0.9040   -1.6150 hc        1 MOL     -0.038053
     19 N2          5.0260   -0.9000   -2.8820 n         1 MOL     -0.202549
     20 C7          4.4190   -2.2060   -2.7160 c3        1 MOL      0.051633
     21 C8          5.3370   -3.1080   -1.8750 c         1 MOL      0.277401
     22 O5          5.6520   -4.2340   -2.2660 o         1 MOL     -0.553291
     23 C9          2.9940   -2.0780   -2.1340 c3        1 MOL      0.199577
     24 C10         2.4320   -3.5560   -1.8450 c3        1 MOL     -0.070508
     25 C11         2.0620   -1.4390   -3.1340 c3        1 MOL     -0.464220
     26 C12         2.2590   -4.4630   -3.0350 c3        1 MOL     -0.064475
     27 H8          5.2140   -0.7980   -3.8730 hn        1 MOL      0.195733
     28 H9          4.3860   -2.6160   -3.7220 h1        1 MOL      0.083508
     29 H10         2.9650   -1.4300   -1.2670 hc        1 MOL      0.035141
     30 H11         1.5030   -3.4090   -1.2960 hc        1 MOL      0.032423
     31 H12         2.9930   -4.0010   -1.0210 hc        1 MOL      0.032423
     32 H13         2.1600   -1.8450   -4.1330 hc        1 MOL      0.105170
     33 H14         1.0260   -1.5750   -2.8030 hc        1 MOL      0.105170
     34 H15         2.3080   -0.3670   -3.1100 hc        1 MOL      0.105170
     35 H16         1.4880   -3.9570   -3.6210 hc        1 MOL      0.006067
     36 H17         3.1600   -4.5180   -3.6540 hc        1 MOL      0.006067
     37 H18         1.8920   -5.4580   -2.7750 hc        1 MOL      0.006067
     38 N3          5.8620   -2.7130   -0.7110 n         1 MOL      0.001511
     39 C13         6.7480   -3.4600    0.1940 c3        1 MOL      0.107900
     40 C14         6.0920   -4.7410    0.8570 c         1 MOL      0.561405
     41 O6          6.7170   -5.8120    0.8640 o         1 MOL     -0.592588
     42 C15         7.5620   -2.5560    1.1420 c3        1 MOL     -0.402007
     43 C16         8.4890   -1.6130    0.3210 c         1 MOL      0.771365
     44 O7          8.9660   -1.9010   -0.7850 o         1 MOL     -0.708109
     45 O8          8.8850   -0.6010    0.9410 o         1 MOL     -0.708109
     46 H19         5.6460   -1.7380   -0.5350 hn        1 MOL      0.084611
     47 H20         7.4800   -3.8720   -0.5080 h1        1 MOL      0.023870
     48 H21         8.1670   -3.2190    1.7570 hc        1 MOL      0.113501
     49 H22         6.9330   -1.9370    1.7830 hc        1 MOL      0.113501
     50 N4          4.8590   -4.7220    1.3230 n         1 MOL     -0.520600
     51 C17         4.1570   -3.5540    1.8330 c3        1 MOL      0.290803
     52 C18         4.7420   -2.9900    3.0740 c         1 MOL      0.378417
     53 O9          5.7530   -3.4140    3.5750 o         1 MOL     -0.545754
     54 H23         4.4760   -5.6230    1.5570 hn        1 MOL      0.269779
     55 H24         3.0980   -3.7130    2.0690 h1        1 MOL     -0.012964
     56 H25         4.1890   -2.8300    1.0120 h1        1 MOL     -0.012964
     57 N5          4.1950   -1.9410    3.6160 n         1 MOL     -0.412043
     58 C19         2.8700   -1.3310    3.4170 c3        1 MOL      0.196977
     59 C20         2.6340   -0.7660    1.9820 c         1 MOL      0.051936
     60 O10         3.5640   -0.4830    1.2400 o         1 MOL     -0.420333
     61 C21         2.5770   -0.2060    4.4550 c3        1 MOL     -0.411203
     62 C22         3.4270    1.1210    4.2020 c         1 MOL      0.780108
     63 O11         3.2360    1.7450    3.1560 o         1 MOL     -0.668086
     64 O12         4.1630    1.5320    5.1160 o         1 MOL     -0.668086
     65 H26         4.6990   -1.5350    4.3960 hn        1 MOL      0.319346
     66 H27         2.1240   -2.1140    3.5620 h1        1 MOL      0.037986
     67 H28         2.7620   -0.6280    5.4320 hc        1 MOL      0.095424
     68 H29         1.4930   -0.0540    4.3640 hc        1 MOL      0.095424
     69 N6          1.4240   -0.5310    1.4880 n         1 MOL     -0.044859
     70 C23         0.1040   -1.0330    1.9410 c3        1 MOL     -0.146110
     71 C24        -0.2020   -2.4510    1.3700 c         1 MOL      0.579193
     72 O13         0.6770   -3.2980    1.2850 o         1 MOL     -0.516058
     73 H30         1.4450    0.0450    0.6510 hn        1 MOL      0.175680
     74 H31        -0.6770   -0.4150    1.4980 h1        1 MOL      0.092254
     75 H32         0.0740   -1.0100    3.0300 h1        1 MOL      0.092254
     76 N7         -1.4170   -2.6690    0.9080 n         1 MOL     -0.437436
     77 C25        -1.9170   -3.9520    0.3890 c3        1 MOL     -0.016500
     78 C26        -2.7990   -3.8610   -0.9000 c         1 MOL      0.453161
     79 O14        -2.8660   -4.9220   -1.5310 o         1 MOL     -0.533945
     80 C27        -2.6780   -4.7120    1.5030 c3        1 MOL      0.009656
     81 C28        -3.9290   -4.0410    2.1260 c3        1 MOL     -0.437933
     82 C29        -5.0890   -3.9170    1.1310 c         1 MOL      0.421805
     83 N8         -5.6800   -4.9930    0.6980 n         1 MOL     -0.611622
     84 O15        -5.5320   -2.8690    0.6980 o         1 MOL     -0.359941
     85 H33        -2.0340   -1.8760    1.0050 hn        1 MOL      0.241089
     86 H34        -1.0370   -4.5430    0.1480 h1        1 MOL      0.147363
     87 H35        -1.9760   -4.8600    2.3230 hc        1 MOL      0.040491
     88 H36        -2.9750   -5.6970    1.1390 hc        1 MOL      0.040491
     89 H37        -3.5920   -3.0480    2.4050 hc        1 MOL      0.172293
     90 H38        -4.1550   -4.7000    2.9580 hc        1 MOL      0.172293
     91 H39        -5.3260   -5.8480    1.1160 hn        1 MOL      0.319354
     92 H40        -6.6190   -4.9020    0.3400 hn        1 MOL      0.319354
     93 N9         -3.2670   -2.7420   -1.4440 n         1 MOL     -0.346718
     94 C30        -3.8170   -2.6060   -2.8350 c3        1 MOL     -0.012566
     95 C31        -5.2740   -2.0240   -2.9100 c         1 MOL      0.231306
     96 O16        -5.7670   -1.7670   -3.9960 o         1 MOL     -0.504729
     97 C32        -2.8760   -1.7740   -3.7450 c3        1 MOL      0.207697
     98 C33        -1.6090   -2.5820   -3.9700 c3        1 MOL     -0.166359
     99 C34        -2.6200   -0.4020   -3.1360 c3        1 MOL     -0.166359
    100 H41        -3.1820   -1.8790   -0.9380 hn        1 MOL      0.275480
    101 H42        -3.8410   -3.6030   -3.2800 h1        1 MOL      0.122666
    102 H43        -3.3500   -1.6440   -4.7210 hc        1 MOL      0.019641
    103 H44        -1.8790   -3.4420   -4.5760 hc        1 MOL      0.034855
    104 H45        -0.8460   -1.9680   -4.4420 hc        1 MOL      0.034855
    105 H46        -1.1110   -2.9230   -3.0590 hc        1 MOL      0.034855
    106 H47        -2.3250    0.1510   -4.0260 hc        1 MOL      0.034855
    107 H48        -3.5100    0.1240   -2.8030 hc        1 MOL      0.034855
    108 H49        -1.9400   -0.4730   -2.2850 hc        1 MOL      0.034855
    109 N10        -5.9670   -1.7380   -1.7430 n         1 MOL     -0.041051
    110 C35        -7.3690   -1.1490   -1.6980 c3        1 MOL      0.036991
    111 C36        -7.4240    0.3510   -1.3170 c         1 MOL      0.554747
    112 O17        -8.4250    0.9010   -1.6170 o         1 MOL     -0.520071
    113 C37        -8.4080   -2.0130   -0.9380 c3        1 MOL      0.084280
    114 C38        -8.2570   -3.5120   -1.2150 c         1 MOL      0.572318
    115 N11        -8.4210   -4.0440   -2.4050 n         1 MOL     -0.766496
    116 O18        -8.2230   -4.3190   -0.2790 o         1 MOL     -0.561552
    117 H50        -5.5150   -1.9280   -0.8660 hn        1 MOL      0.084523
    118 H51        -7.7930   -1.0880   -2.7040 h1        1 MOL      0.021061
    119 H52        -9.4400   -1.7910   -1.1970 hc        1 MOL     -0.023485
    120 H53        -8.2810   -1.8320    0.1340 hc        1 MOL     -0.023485
    121 H54        -8.3300   -3.5070   -3.2490 hn        1 MOL      0.368771
    122 H55        -8.5050   -5.0490   -2.3760 hn        1 MOL      0.368771
    123 N12        -6.3830    0.9640   -0.6140 n         1 MOL     -0.478926
    124 C39        -6.3850    2.2310    0.0060 c3        1 MOL      0.220182
    125 C40        -4.9770    2.8770    0.1680 c         1 MOL      0.407388
    126 O19        -3.9520    2.2040    0.2660 o         1 MOL     -0.388701
    127 C41        -7.1420    2.0770    1.3650 c3        1 MOL     -0.188081
    128 C42        -7.0670    0.6660    2.0440 ca        1 MOL     -0.018766
    129 C43        -8.2370   -0.0660    2.1830 ca        1 MOL      0.003418
    130 C44        -5.9180    0.1670    2.7480 ca        1 MOL      0.003418
    131 C45        -8.2070   -1.2730    2.8170 ca        1 MOL     -0.431978
    132 C46        -5.9570   -1.0320    3.4090 ca        1 MOL     -0.431978
    133 C47        -7.0830   -1.7690    3.4580 ca        1 MOL      0.514249
    134 O20        -7.1050   -2.9060    4.1540 oh        1 MOL     -0.511641
    135 H56        -5.5050    0.4530   -0.6070 hn        1 MOL      0.176307
    136 H57        -7.0300    2.8760   -0.5940 h1        1 MOL      0.037878
    137 H58        -8.2050    2.1610    1.1270 hc        1 MOL      0.051628
    138 H59        -6.8250    2.8450    2.0730 hc        1 MOL      0.051628
    139 H60        -9.1630    0.3810    1.8390 ha        1 MOL      0.114049
    140 H61        -5.0360    0.7990    2.7200 ha        1 MOL      0.114049
    141 H62        -9.0550   -1.9390    2.8190 ha        1 MOL      0.158995
    142 H63        -5.2210   -1.4100    4.1010 ha        1 MOL      0.158995
    143 H64        -7.9510   -3.3670    4.0660 ho        1 MOL      0.350641
    144 N13        -4.9380    4.2040    0.1730 n         1 MOL     -0.576715
    145 C48        -3.8520    5.0680    0.6310 c3        1 MOL      0.188146
    146 C49        -2.6930    5.2790   -0.3870 c         1 MOL      0.326949
    147 O21        -1.9680    6.2720   -0.4030 o         1 MOL     -0.487309
    148 C50        -3.5420    4.8770    2.0950 c3        1 MOL     -0.017238
    149 C51        -2.5940    5.8790    2.7330 c3        1 MOL     -0.464505
    150 C52        -2.6720    5.5320    4.2580 c         1 MOL      0.782993
    151 O22        -2.2440    4.4480    4.6120 o         1 MOL     -0.749639
    152 O23        -3.2630    6.3050    5.0140 o         1 MOL     -0.749639
    153 H65        -5.7830    4.6490   -0.1640 hn        1 MOL      0.300397
    154 H66        -4.2440    6.0870    0.6480 h1        1 MOL      0.027389
    155 H67        -3.2360    3.8420    2.2270 hc        1 MOL      0.083485
    156 H68        -4.5310    4.9690    2.5600 hc        1 MOL      0.083485
    157 H69        -2.7570    6.9480    2.6420 hc        1 MOL      0.113791
    158 H70        -1.6160    5.5580    2.3710 hc        1 MOL      0.113791
    159 N14        -2.3640    4.1570   -1.1010 n         1 MOL     -0.235828
    160 C53        -1.1530    4.1030   -1.9580 c3        1 MOL     -0.112012
    161 C54        -1.5060    4.6050   -3.3600 c         1 MOL      0.485410
    162 O24        -0.6340    4.8750   -4.1700 o         1 MOL     -0.539374
    163 C55        -0.6360    2.6080   -2.0210 c3        1 MOL     -0.177985
    164 C56        -0.2110    1.9940   -0.6990 c3        1 MOL      0.621979
    165 C57         0.9920    2.6380   -0.0110 c         1 MOL      0.515358
    166 O25         0.9130    3.8740    0.3610 o         1 MOL     -0.641391
    167 O26         1.9470    1.9130    0.2410 o         1 MOL     -0.641391
    168 H71        -2.8900    3.3430   -0.8370 hn        1 MOL      0.176434
    169 H72        -0.3950    4.7950   -1.5900 h1        1 MOL      0.190003
    170 H73         0.2560    2.3870   -2.6090 hc        1 MOL      0.022515
    171 H74        -1.4580    1.9880   -2.3790 hc        1 MOL      0.022515
    172 H75         0.1320    1.0110   -0.9900 hc        1 MOL     -0.187511
    173 H76        -1.0300    1.7540   -0.0190 hc        1 MOL     -0.187511
    174 N15        -2.7970    4.9090   -3.5860 n         1 MOL     -0.257409
    175 C58        -3.4130    5.5850   -4.7350 c3        1 MOL     -0.100723
    176 H77        -4.2240    4.9700   -5.1260 h1        1 MOL      0.059055
    177 H78        -3.8090    6.5500   -4.4210 h1        1 MOL      0.059055
    178 H79        -2.6650    5.7340   -5.5130 h1        1 MOL      0.059055
    179 H80        -3.4440    4.7400   -2.8200 hn        1 MOL      0.189533
    180 Ca1         4.5170    1.9680    0.7460 Ca        1 MOL      1.655969
    181 O27         5.3120    3.7170    3.0290 oh        1 MOL     -0.777773
    182 H81         4.5570    3.4690    3.5630 ho        1 MOL      0.367906
    183 H82         5.0710    4.5530    2.6420 ho        1 MOL      0.367906
    184 O28         3.5670    4.6320    0.5310 oh        1 MOL     -0.777773
    185 H83         3.6790    5.5200    0.8640 ho        1 MOL      0.367906
    186 H84         2.6420    4.5850    0.2890 ho        1 MOL      0.367906
    187 O29         6.3060    0.9060    2.2980 oh        1 MOL     -0.777773
    188 H85         6.6240    0.9350    3.2030 ho        1 MOL      0.367906
    189 H86         6.8830    0.2890    1.8640 ho        1 MOL      0.367906
@<TRIPOS>BOND
     1    1    2 1   
     2    1    4 1   
     3    1    5 1   
     4    1    6 1   
     5    2    3 2   
     6    2    7 1   
     7    7    8 1   
     8    7   15 1   
     9    8    9 1   
    10    8   11 1   
    11    8   16 1   
    12    9   10 2   
    13    9   19 1   
    14   11   12 1   
    15   11   17 1   
    16   11   18 1   
    17   12   13 1   
    18   12   14 1   
    19   19   20 1   
    20   19   27 1   
    21   20   21 1   
    22   20   23 1   
    23   20   28 1   
    24   21   22 2   
    25   21   38 1   
    26   23   24 1   
    27   23   25 1   
    28   23   29 1   
    29   24   26 1   
    30   24   30 1   
    31   24   31 1   
    32   25   32 1   
    33   25   33 1   
    34   25   34 1   
    35   26   35 1   
    36   26   36 1   
    37   26   37 1   
    38   38   39 1   
    39   38   46 1   
    40   39   40 1   
    41   39   42 1   
    42   39   47 1   
    43   40   41 2   
    44   40   50 1   
    45   42   43 1   
    46   42   48 1   
    47   42   49 1   
    48   43   44 1   
    49   43   45 1   
    50   50   51 1   
    51   50   54 1   
    52   51   52 1   
    53   51   55 1   
    54   51   56 1   
    55   52   53 2   
    56   52   57 1   
    57   57   58 1   
    58   57   65 1   
    59   58   59 1   
    60   58   61 1   
    61   58   66 1   
    62   59   60 2   
    63   59   69 1   
    64   61   62 1   
    65   61   67 1   
    66   61   68 1   
    67   62   63 1   
    68   62   64 1   
    69   69   70 1   
    70   69   73 1   
    71   70   71 1   
    72   70   74 1   
    73   70   75 1   
    74   71   72 2   
    75   71   76 1   
    76   76   77 1   
    77   76   85 1   
    78   77   78 1   
    79   77   80 1   
    80   77   86 1   
    81   78   79 2   
    82   78   93 1   
    83   80   81 1   
    84   80   87 1   
    85   80   88 1   
    86   81   82 1   
    87   81   89 1   
    88   81   90 1   
    89   82   83 1   
    90   82   84 2   
    91   83   91 1   
    92   83   92 1   
    93   93   94 1   
    94   93  100 1   
    95   94   95 1   
    96   94   97 1   
    97   94  101 1   
    98   95   96 2   
    99   95  109 1   
   100   97   98 1   
   101   97   99 1   
   102   97  102 1   
   103   98  103 1   
   104   98  104 1   
   105   98  105 1   
   106   99  106 1   
   107   99  107 1   
   108   99  108 1   
   109  109  110 1   
   110  109  117 1   
   111  110  111 1   
   112  110  113 1   
   113  110  118 1   
   114  111  112 2   
   115  111  123 1   
   116  113  114 1   
   117  113  119 1   
   118  113  120 1   
   119  114  115 1   
   120  114  116 2   
   121  115  121 1   
   122  115  122 1   
   123  123  124 1   
   124  123  135 1   
   125  124  125 1   
   126  124  127 1   
   127  124  136 1   
   128  125  126 2   
   129  125  144 1   
   130  127  128 1   
   131  127  137 1   
   132  127  138 1   
   133  128  129 ar  
   134  128  130 ar  
   135  129  131 ar  
   136  129  139 1   
   137  130  132 ar  
   138  130  140 1   
   139  131  133 ar  
   140  131  141 1   
   141  132  133 ar  
   142  132  142 1   
   143  133  134 1   
   144  134  143 1   
   145  144  145 1   
   146  144  153 1   
   147  145  146 1   
   148  145  148 1   
   149  145  154 1   
   150  146  147 2   
   151  146  159 1   
   152  148  149 1   
   153  148  155 1   
   154  148  156 1   
   155  149  150 1   
   156  149  157 1   
   157  149  158 1   
   158  150  151 1   
   159  150  152 1   
   160  159  160 1   
   161  159  168 1   
   162  160  161 1   
   163  160  163 1   
   164  160  169 1   
   165  161  162 2   
   166  161  174 1   
   167  163  164 1   
   168  163  170 1   
   169  163  171 1   
   170  164  165 1   
   171  164  172 1   
   172  164  173 1   
   173  165  166 1   
   174  165  167 1   
   175  174  175 1   
   176  174  179 1   
   177  175  176 1   
   178  175  177 1   
   179  175  178 1   
   180  181  182 1   
   181  181  183 1   
   182  184  185 1   
   183  184  186 1   
   184  187  188 1   
   185  187  189 1   
@<TRIPOS>SUBSTRUCTURE
     1 MOL         1 TEMP              0 ****  ****    0 ROOT
