@<TRIPOS>MOLECULE
MOL
  191   184     1     0     0
SMALL
resp


@<TRIPOS>ATOM
      1 C1         -0.8520    1.1070   -4.4770 c3        1 MOL     -0.368033
      2 C2         -1.8230    0.4010   -3.5610 c         1 MOL      0.760883
      3 O1         -2.0770    0.7680   -2.4280 o         1 MOL     -0.613573
      4 H1         -0.2420    0.3690   -4.9980 hc        1 MOL      0.094344
      5 H2         -1.4050    1.7000   -5.2060 hc        1 MOL      0.094344
      6 H3         -0.2080    1.7610   -3.8900 hc        1 MOL      0.094344
      7 N1         -2.5300   -0.5980   -4.0620 n         1 MOL     -0.662127
      8 C3         -3.7760   -1.1500   -3.3760 c3        1 MOL      0.176819
      9 C4         -3.3560   -1.7650   -1.9970 c         1 MOL      0.336748
     10 O2         -4.0730   -1.5650   -1.0350 o         1 MOL     -0.466193
     11 C5         -4.5680   -2.2650   -4.1340 c3        1 MOL      0.026344
     12 C6         -3.7260   -3.3180   -4.8980 c         1 MOL      0.616399
     13 O3         -2.7500   -3.8480   -4.2950 o         1 MOL     -0.667214
     14 O4         -4.0820   -3.6520   -6.0870 o         1 MOL     -0.667214
     15 H4         -2.4630   -0.7890   -5.0460 hn        1 MOL      0.336099
     16 H5         -4.3910   -0.3210   -3.0240 h1        1 MOL      0.120989
     17 H6         -5.2270   -1.7770   -4.8410 hc        1 MOL     -0.013064
     18 H7         -5.2180   -2.8090   -3.4390 hc        1 MOL     -0.013064
     19 N2         -2.3450   -2.6560   -1.8940 n         1 MOL     -0.404084
     20 C7         -2.0740   -3.4780   -0.7230 c3        1 MOL      0.216725
     21 C8         -3.3540   -4.0440   -0.0430 c         1 MOL      0.200881
     22 O5         -4.1080   -4.6090   -0.8090 o         1 MOL     -0.416940
     23 C9         -1.1260   -4.6000   -1.1050 c3        1 MOL      0.011293
     24 C10         0.2490   -4.1610   -1.5270 c3        1 MOL     -0.192707
     25 C11         1.1950   -5.3810   -1.9190 c3        1 MOL      0.161031
     26 C12         2.4590   -4.8760   -2.6160 c3        1 MOL      0.044908
     27 N3          3.2830   -5.9370   -3.1750 n4        1 MOL     -0.296718
     28 H8         -1.9000   -2.9380   -2.7540 hn        1 MOL      0.243877
     29 H9         -1.5640   -2.8310   -0.0120 h1        1 MOL     -0.018484
     30 H10        -1.5990   -5.1040   -1.9400 hc        1 MOL      0.050302
     31 H11        -1.1120   -5.3590   -0.3260 hc        1 MOL      0.050302
     32 H12         0.7340   -3.6870   -0.6730 hc        1 MOL      0.057412
     33 H13         0.0820   -3.4570   -2.3480 hc        1 MOL      0.057412
     34 H14         0.6620   -6.0790   -2.5650 hc        1 MOL     -0.016573
     35 H15         1.4790   -5.9580   -1.0450 hc        1 MOL     -0.016573
     36 H16         2.9840   -4.2790   -1.8720 hx        1 MOL      0.065811
     37 H17         2.1840   -4.1270   -3.3590 hx        1 MOL      0.065811
     38 H18         2.7800   -6.3930   -3.9210 hn        1 MOL      0.301432
     39 H19         4.0690   -5.5580   -3.6840 hn        1 MOL      0.301432
     40 H20         3.6130   -6.6430   -2.5340 hn        1 MOL      0.301432
     41 N4         -3.4360   -4.0330    1.3000 n         1 MOL     -0.212138
     42 C13        -4.6350   -4.3400    1.9730 c3        1 MOL      0.269947
     43 C14        -5.6290   -3.1530    1.6950 c         1 MOL      0.350151
     44 O6         -5.5540   -2.1010    2.3460 o         1 MOL     -0.535162
     45 C15        -4.5550   -4.5780    3.4740 c3        1 MOL     -0.603656
     46 C16        -3.6430   -3.7540    4.3730 c         1 MOL      0.852459
     47 O7         -3.0570   -2.7460    3.9510 o         1 MOL     -0.724213
     48 O8         -3.4160   -4.0010    5.6150 o         1 MOL     -0.724213
     49 H21        -2.7150   -3.5080    1.7870 hn        1 MOL      0.156330
     50 H22        -5.0370   -5.2550    1.5230 h1        1 MOL      0.047446
     51 H23        -4.2680   -5.6250    3.5150 hc        1 MOL      0.140032
     52 H24        -5.5400   -4.4370    3.9240 hc        1 MOL      0.140032
     53 N5         -6.5180   -3.4390    0.7160 n         1 MOL     -0.373429
     54 C17        -7.2870   -2.3190    0.1510 c3        1 MOL      0.313667
     55 C18        -7.3020   -2.2800   -1.4190 c         1 MOL      0.478677
     56 O9         -7.2750   -3.3270   -2.1030 o         1 MOL     -0.494892
     57 H25        -6.5390   -4.3480    0.2810 hn        1 MOL      0.281669
     58 H26        -6.8780   -1.3970    0.5710 h1        1 MOL     -0.045600
     59 H27        -8.3490   -2.3810    0.3820 h1        1 MOL     -0.045600
     60 N6         -7.4630   -1.1040   -2.0740 n         1 MOL     -0.551370
     61 C19        -7.2620    0.2300   -1.5640 c3        1 MOL      0.344418
     62 C20        -6.5080    1.1330   -2.6390 c         1 MOL      0.379479
     63 O10        -6.8080    1.1020   -3.8050 o         1 MOL     -0.475222
     64 C21        -8.6300    0.8210   -1.1220 c3        1 MOL     -0.361603
     65 C22        -8.4770    2.0880   -0.3120 c         1 MOL      0.695488
     66 N7         -8.9940    3.1580   -0.8190 n         1 MOL     -0.741401
     67 O11        -8.0150    2.0000    0.8300 o         1 MOL     -0.602407
     68 H28        -7.7600   -1.2120   -3.0330 hn        1 MOL      0.321284
     69 H29        -6.7160    0.1820   -0.6260 h1        1 MOL      0.070083
     70 H30        -9.1380    0.0610   -0.5270 hc        1 MOL      0.101151
     71 H31        -9.1650    0.9290   -2.0670 hc        1 MOL      0.101151
     72 H32        -9.2030    3.1270   -1.8010 hn        1 MOL      0.366193
     73 H33        -8.8250    4.0560   -0.3920 hn        1 MOL      0.366193
     74 N8         -5.5760    2.0310   -2.1890 n         1 MOL     -0.602309
     75 C23        -4.7630    2.0600   -0.9060 c3        1 MOL      0.043953
     76 C24        -3.7820    3.2870   -0.7930 c         1 MOL      0.430993
     77 O12        -3.9940    4.3830   -1.4170 o         1 MOL     -0.523419
     78 H34        -5.3080    2.6010   -2.9720 hn        1 MOL      0.373009
     79 H35        -4.2320    1.1160   -0.8140 h1        1 MOL      0.059566
     80 H36        -5.4970    2.0640   -0.0970 h1        1 MOL      0.059566
     81 N9         -2.5600    3.0350   -0.2480 n         1 MOL     -0.294590
     82 C25        -1.3700    3.8190   -0.3700 c3        1 MOL      0.166458
     83 C26        -0.0480    3.0190   -0.3340 c         1 MOL      0.477271
     84 O13         0.0350    1.9360    0.2340 o         1 MOL     -0.522803
     85 C27        -1.4380    4.9550    0.6940 c3        1 MOL     -0.154468
     86 C28        -0.7560    6.2360    0.3260 ca        1 MOL      0.066086
     87 C29         0.4310    6.7680    0.9570 ca        1 MOL     -0.144532
     88 C30        -1.3150    6.9540   -0.7530 ca        1 MOL     -0.144532
     89 C31         1.0450    7.8960    0.4230 ca        1 MOL     -0.292443
     90 C32        -0.7830    8.1680   -1.1690 ca        1 MOL     -0.292443
     91 C33         0.3360    8.6050   -0.5350 ca        1 MOL      0.392011
     92 O14         0.8050    9.8880   -0.8530 oh        1 MOL     -0.526514
     93 H37        -2.5610    2.1730    0.2770 hn        1 MOL      0.244829
     94 H38        -1.3720    4.3410   -1.3200 h1        1 MOL      0.038895
     95 H39        -0.8270    4.6360    1.5430 hc        1 MOL      0.035143
     96 H40        -2.4360    5.1500    1.0710 hc        1 MOL      0.035143
     97 H41         0.8630    6.2550    1.8000 ha        1 MOL      0.143135
     98 H42        -2.2850    6.6770   -1.1230 ha        1 MOL      0.143135
     99 H43         1.9710    8.2270    0.8620 ha        1 MOL      0.162447
    100 H44        -1.1680    8.7350   -2.0020 ha        1 MOL      0.162447
    101 H45         0.1770   10.3580   -1.4160 ho        1 MOL      0.367205
    102 N10         1.0150    3.6160   -0.8750 n         1 MOL     -0.395088
    103 C34         2.4170    3.1780   -0.8120 c3        1 MOL     -0.082096
    104 C35         3.0780    2.8540    0.5480 c         1 MOL      0.703128
    105 O15         2.8010    3.5230    1.5640 o         1 MOL     -0.559135
    106 C36         3.3020    4.2350   -1.5480 c3        1 MOL      0.092921
    107 C37         3.6610    5.4370   -0.5970 c3        1 MOL      0.110571
    108 C38         4.6010    3.6430   -2.0540 c3        1 MOL     -0.279710
    109 C39         4.1660    6.7300   -1.3070 c3        1 MOL     -0.342532
    110 H46         0.8830    4.4630   -1.4150 hn        1 MOL      0.249926
    111 H47         2.5790    2.3150   -1.4510 h1        1 MOL      0.090565
    112 H48         2.7540    4.7030   -2.3650 hc        1 MOL      0.030633
    113 H49         4.4100    5.1080    0.1340 hc        1 MOL      0.009733
    114 H50         2.8310    5.7200    0.0540 hc        1 MOL      0.009733
    115 H51         4.4260    2.7000   -2.5770 hc        1 MOL      0.072375
    116 H52         5.0810    4.4050   -2.6700 hc        1 MOL      0.072375
    117 H53         5.3150    3.4360   -1.2460 hc        1 MOL      0.072375
    118 H54         3.2500    7.0950   -1.7760 hc        1 MOL      0.088868
    119 H55         4.6030    7.4660   -0.6190 hc        1 MOL      0.088868
    120 H56         4.9650    6.5480   -2.0220 hc        1 MOL      0.088868
    121 N11         3.9370    1.7940    0.6020 n         1 MOL     -0.652180
    122 C40         4.5120    1.2450    1.8420 c3        1 MOL      0.141034
    123 C41         4.9270   -0.2160    1.5650 c         1 MOL      0.457499
    124 O16         5.6760   -0.4800    0.6390 o         1 MOL     -0.428023
    125 C42         5.7050    2.0660    2.2730 c3        1 MOL      0.102942
    126 O17         6.3920    1.4090    3.2970 oh        1 MOL     -0.592688
    127 H57         4.0700    1.3470   -0.2900 hn        1 MOL      0.316720
    128 H58         3.7410    1.2600    2.6240 h1        1 MOL      0.075826
    129 H59         5.3590    3.0360    2.6030 h1        1 MOL      0.043169
    130 H60         6.3640    2.1640    1.4120 h1        1 MOL      0.043169
    131 H61         7.0990    1.9910    3.5810 ho        1 MOL      0.424716
    132 N12         4.4890   -1.1410    2.3700 n         1 MOL     -0.457167
    133 C43         5.0740   -2.4560    2.5370 c3        1 MOL      0.254945
    134 C44         6.5500   -2.4690    2.7640 c         1 MOL      0.344204
    135 O18         7.2090   -3.4340    2.4720 o         1 MOL     -0.452076
    136 C45         4.5740   -3.3860    1.3710 c3        1 MOL     -0.298175
    137 H62         3.8080   -1.0120    3.1020 hn        1 MOL      0.291672
    138 H63         4.6180   -2.7750    3.4800 h1        1 MOL      0.046554
    139 H64         5.1850   -4.2850    1.4370 hc        1 MOL      0.086957
    140 H65         3.4920   -3.4960    1.4710 hc        1 MOL      0.086957
    141 H66         4.7520   -2.9320    0.3970 hc        1 MOL      0.086957
    142 N13         7.2470   -1.3800    3.1310 n         1 MOL     -0.446344
    143 C46         8.6790   -1.1790    3.0170 c3        1 MOL      0.519247
    144 C47         9.3180   -1.3540    1.5760 c         1 MOL      0.152121
    145 O19        10.4410   -1.7530    1.4670 o         1 MOL     -0.453532
    146 C48         9.4020   -1.9870    4.0620 c3        1 MOL     -0.452899
    147 H67         6.7240   -0.6460    3.5800 hn        1 MOL      0.205709
    148 H68         8.7850   -0.1130    3.2140 h1        1 MOL     -0.067908
    149 H69         9.1390   -1.7670    5.0970 hc        1 MOL      0.111051
    150 H70         9.4510   -3.0210    3.7110 hc        1 MOL      0.111051
    151 H71        10.4220   -1.5960    3.9560 hc        1 MOL      0.111051
    152 N14         8.4790   -1.1860    0.5790 n         1 MOL      0.152580
    153 C49         8.8440   -1.3740   -0.8280 c3        1 MOL     -0.461962
    154 C50         9.7120   -0.2110   -1.3860 c         1 MOL      0.472376
    155 O20        10.4620   -0.4350   -2.3480 o         1 MOL     -0.491537
    156 C51         7.6180   -1.4530   -1.7820 c3        1 MOL      0.511055
    157 C52         7.9120   -2.0150   -3.2000 c3        1 MOL     -0.420310
    158 C53         8.2390   -3.5090   -3.0950 c         1 MOL      0.774619
    159 O21         9.3880   -3.9030   -2.7970 o         1 MOL     -0.723069
    160 O22         7.3130   -4.3400   -3.3730 o         1 MOL     -0.723069
    161 H72         7.5210   -0.8610    0.7050 hn        1 MOL      0.027092
    162 H73         9.4830   -2.2600   -0.8990 h1        1 MOL      0.280736
    163 H74         7.2150   -0.4530   -1.9180 hc        1 MOL     -0.124157
    164 H75         6.7730   -1.9660   -1.3200 hc        1 MOL     -0.124157
    165 H76         8.6900   -1.5330   -3.7840 hc        1 MOL      0.075125
    166 H77         7.0660   -1.8810   -3.8620 hc        1 MOL      0.075125
    167 N15         9.6110    0.9820   -0.7990 n         1 MOL     -0.244760
    168 C54        10.3650    2.1770   -1.2400 c3        1 MOL     -0.157286
    169 H78        11.2690    1.8640   -1.7630 h1        1 MOL      0.081613
    170 H79         9.7450    2.7710   -1.9120 h1        1 MOL      0.081613
    171 H80        10.6370    2.7770   -0.3720 h1        1 MOL      0.081613
    172 H81         9.0850    1.1320    0.0490 hn        1 MOL      0.193608
    173 Ca1        -4.3970   -0.3290    3.9170 Ca        1 MOL      1.833517
    174 O23        -1.8770    0.1550    4.5450 oh        1 MOL     -0.908408
    175 H82        -1.2050   -0.4320    4.8790 ho        1 MOL      0.441846
    176 H83        -1.4150    0.9800    4.3960 ho        1 MOL      0.441846
    177 O24        -6.6750    1.0510    3.2450 oh        1 MOL     -0.908408
    178 H84        -7.5040    0.8770    3.6820 ho        1 MOL      0.441846
    179 H85        -6.8280    1.8680    2.7800 ho        1 MOL      0.441846
    180 O25        -3.9910    0.6470    6.5170 oh        1 MOL     -0.908408
    181 H86        -4.4680    1.3230    6.9950 ho        1 MOL      0.441846
    182 H87        -3.3630    0.3050    7.1470 ho        1 MOL      0.441846
    183 O26        -3.6920    2.5830    2.9250 oh        1 MOL     -0.908408
    184 H88        -4.3600    3.2710    2.9310 ho        1 MOL      0.441846
    185 H89        -2.8850    3.0350    3.1590 ho        1 MOL      0.441846
    186 O27        -6.2230   -1.7010    5.6120 oh        1 MOL     -0.908408
    187 H90        -6.0050   -2.5370    6.0120 ho        1 MOL      0.441846
    188 H91        -7.1470   -1.5720    5.8030 ho        1 MOL      0.441846
    189 O28        -3.5800   -0.4540    1.2560 oh        1 MOL     -0.908408
    190 H92        -4.1160   -1.0070    0.6750 ho        1 MOL      0.441846
    191 H93        -2.7090   -0.4770    0.8730 ho        1 MOL      0.441846
@<TRIPOS>BOND
     1    1    2 1   
     2    1    4 1   
     3    1    5 1   
     4    1    6 1   
     5    2    3 2   
     6    2    7 1   
     7    7    8 1   
     8    7   15 1   
     9    8    9 1   
    10    8   11 1   
    11    8   16 1   
    12    9   10 2   
    13    9   19 1   
    14   11   12 1   
    15   11   17 1   
    16   11   18 1   
    17   12   13 1   
    18   12   14 1   
    19   19   20 1   
    20   19   28 1   
    21   20   21 1   
    22   20   23 1   
    23   20   29 1   
    24   21   22 2   
    25   21   41 1   
    26   23   24 1   
    27   23   30 1   
    28   23   31 1   
    29   24   25 1   
    30   24   32 1   
    31   24   33 1   
    32   25   26 1   
    33   25   34 1   
    34   25   35 1   
    35   26   27 1   
    36   26   36 1   
    37   26   37 1   
    38   27   38 1   
    39   27   39 1   
    40   27   40 1   
    41   41   42 1   
    42   41   49 1   
    43   42   43 1   
    44   42   45 1   
    45   42   50 1   
    46   43   44 2   
    47   43   53 1   
    48   45   46 1   
    49   45   51 1   
    50   45   52 1   
    51   46   47 1   
    52   46   48 1   
    53   53   54 1   
    54   53   57 1   
    55   54   55 1   
    56   54   58 1   
    57   54   59 1   
    58   55   56 2   
    59   55   60 1   
    60   60   61 1   
    61   60   68 1   
    62   61   62 1   
    63   61   64 1   
    64   61   69 1   
    65   62   63 2   
    66   62   74 1   
    67   64   65 1   
    68   64   70 1   
    69   64   71 1   
    70   65   66 1   
    71   65   67 2   
    72   66   72 1   
    73   66   73 1   
    74   74   75 1   
    75   74   78 1   
    76   75   76 1   
    77   75   79 1   
    78   75   80 1   
    79   76   77 2   
    80   76   81 1   
    81   81   82 1   
    82   81   93 1   
    83   82   83 1   
    84   82   85 1   
    85   82   94 1   
    86   83   84 2   
    87   83  102 1   
    88   85   86 1   
    89   85   95 1   
    90   85   96 1   
    91   86   87 ar  
    92   86   88 ar  
    93   87   89 ar  
    94   87   97 1   
    95   88   90 ar  
    96   88   98 1   
    97   89   91 ar  
    98   89   99 1   
    99   90   91 ar  
   100   90  100 1   
   101   91   92 1   
   102   92  101 1   
   103  102  103 1   
   104  102  110 1   
   105  103  104 1   
   106  103  106 1   
   107  103  111 1   
   108  104  105 2   
   109  104  121 1   
   110  106  107 1   
   111  106  108 1   
   112  106  112 1   
   113  107  109 1   
   114  107  113 1   
   115  107  114 1   
   116  108  115 1   
   117  108  116 1   
   118  108  117 1   
   119  109  118 1   
   120  109  119 1   
   121  109  120 1   
   122  121  122 1   
   123  121  127 1   
   124  122  123 1   
   125  122  125 1   
   126  122  128 1   
   127  123  124 2   
   128  123  132 1   
   129  125  126 1   
   130  125  129 1   
   131  125  130 1   
   132  126  131 1   
   133  132  133 1   
   134  132  137 1   
   135  133  134 1   
   136  133  136 1   
   137  133  138 1   
   138  134  135 2   
   139  134  142 1   
   140  136  139 1   
   141  136  140 1   
   142  136  141 1   
   143  142  143 1   
   144  142  147 1   
   145  143  144 1   
   146  143  146 1   
   147  143  148 1   
   148  144  145 2   
   149  144  152 1   
   150  146  149 1   
   151  146  150 1   
   152  146  151 1   
   153  152  153 1   
   154  152  161 1   
   155  153  154 1   
   156  153  156 1   
   157  153  162 1   
   158  154  155 2   
   159  154  167 1   
   160  156  157 1   
   161  156  163 1   
   162  156  164 1   
   163  157  158 1   
   164  157  165 1   
   165  157  166 1   
   166  158  159 1   
   167  158  160 1   
   168  167  168 1   
   169  167  172 1   
   170  168  169 1   
   171  168  170 1   
   172  168  171 1   
   173  174  175 1   
   174  174  176 1   
   175  177  178 1   
   176  177  179 1   
   177  180  181 1   
   178  180  182 1   
   179  183  184 1   
   180  183  185 1   
   181  186  187 1   
   182  186  188 1   
   183  189  190 1   
   184  189  191 1   
@<TRIPOS>SUBSTRUCTURE
     1 MOL         1 TEMP              0 ****  ****    0 ROOT
