@<TRIPOS>MOLECULE
MOL
  189   185     1     0     0
SMALL
resp


@<TRIPOS>ATOM
      1 C1          4.1390    4.1510   -3.0030 c3        1 MOL     -0.470718
      2 C2          5.1050    3.3140   -2.1330 c         1 MOL      0.916105
      3 O1          4.7400    2.9290   -1.0490 o         1 MOL     -0.702215
      4 H1          3.1120    3.8500   -2.7970 hc        1 MOL      0.112072
      5 H2          4.2600    5.2080   -2.7670 hc        1 MOL      0.112072
      6 H3          4.3610    3.9860   -4.0560 hc        1 MOL      0.112072
      7 N1          6.3470    2.9570   -2.5920 n         1 MOL     -0.699204
      8 C3          7.2720    1.8970   -2.0360 c3        1 MOL      0.194545
      9 C4          6.4990    0.5760   -1.7120 c         1 MOL      0.223499
     10 O2          6.1290    0.2320   -0.5880 o         1 MOL     -0.448720
     11 C5          8.1760    2.4300   -0.9250 c3        1 MOL     -0.064446
     12 C6          7.6320    3.3540    0.1820 c         1 MOL      0.653813
     13 O3          6.7820    2.9340    1.0240 o         1 MOL     -0.711411
     14 O4          8.0270    4.5550    0.1080 o         1 MOL     -0.711411
     15 H4          6.5970    3.2410   -3.5370 hn        1 MOL      0.303301
     16 H5          7.9530    1.4770   -2.7780 h1        1 MOL      0.029148
     17 H6          9.0540    2.9180   -1.3340 hc        1 MOL      0.022745
     18 H7          8.7170    1.5910   -0.4740 hc        1 MOL      0.022745
     19 N2          6.3600   -0.2030   -2.7600 n         1 MOL     -0.255063
     20 C7          5.7120   -1.5480   -2.9520 c3        1 MOL      0.026723
     21 C8          6.4600   -2.7280   -2.2580 c         1 MOL      0.355385
     22 O5          6.8960   -3.6300   -2.9720 o         1 MOL     -0.539760
     23 C9          4.2060   -1.4550   -2.7260 c3        1 MOL      0.027587
     24 C10         3.5410   -2.7300   -3.3450 c3        1 MOL      0.016294
     25 C11         3.4760   -0.1380   -3.0950 c3        1 MOL     -0.422369
     26 C12         2.4500   -3.2380   -2.4480 c3        1 MOL     -0.150590
     27 H8          6.7540    0.3270   -3.5270 hn        1 MOL      0.224436
     28 H9          5.8030   -1.8070   -4.0150 h1        1 MOL      0.030407
     29 H10         4.1540   -1.5390   -1.6420 hc        1 MOL      0.155364
     30 H11         4.2280   -3.5610   -3.4850 hc        1 MOL      0.000381
     31 H12         3.1370   -2.5590   -4.3340 hc        1 MOL      0.000381
     32 H13         2.4060   -0.2050   -2.8590 hc        1 MOL      0.098864
     33 H14         3.9050    0.6700   -2.5110 hc        1 MOL      0.098864
     34 H15         3.5540    0.1450   -4.1420 hc        1 MOL      0.098864
     35 H16         1.9780   -4.1570   -2.8140 hc        1 MOL      0.043699
     36 H17         2.7350   -3.3070   -1.4080 hc        1 MOL      0.043699
     37 H18         1.6690   -2.4790   -2.4120 hc        1 MOL      0.043699
     38 N3          6.7600   -2.6010   -0.9550 n         1 MOL     -0.122499
     39 C13         7.5360   -3.6410   -0.1840 c3        1 MOL      0.083674
     40 C14         6.8170   -4.8880    0.2580 c         1 MOL      0.526204
     41 O6          7.5100   -5.8810    0.3350 o         1 MOL     -0.578005
     42 C15         8.2070   -2.9320    1.0420 c3        1 MOL     -0.320850
     43 C16         9.0900   -1.7330    0.6720 c         1 MOL      0.725240
     44 O7          8.7660   -0.6200    1.1740 o         1 MOL     -0.714925
     45 O8         10.0290   -1.8360   -0.1660 o         1 MOL     -0.714925
     46 H19         6.5480   -1.7000   -0.5450 hn        1 MOL      0.273076
     47 H20         8.2940   -3.9400   -0.9010 h1        1 MOL      0.050073
     48 H21         8.8570   -3.6450    1.5460 hc        1 MOL      0.078201
     49 H22         7.4460   -2.4900    1.6840 hc        1 MOL      0.078201
     50 N4          5.5770   -4.8650    0.7640 n         1 MOL     -0.492294
     51 C17         4.6250   -3.7410    1.0370 c3        1 MOL     -0.004170
     52 C18         3.1660   -4.2790    1.4250 c         1 MOL      0.629882
     53 O9          2.8510   -5.4220    1.1160 o         1 MOL     -0.586171
     54 H23         5.2560   -5.7550    1.1180 hn        1 MOL      0.282654
     55 H24         4.4230   -3.1180    0.1550 h1        1 MOL      0.086599
     56 H25         5.0230   -3.1290    1.8450 h1        1 MOL      0.086599
     57 N5          2.3180   -3.5180    2.1020 n         1 MOL     -0.552310
     58 C19         2.4220   -2.1270    2.5550 c3        1 MOL      0.198548
     59 C20         2.4510   -1.2040    1.3170 c         1 MOL     -0.108646
     60 O10         3.4840   -0.8360    0.8360 o         1 MOL     -0.474004
     61 C21         3.4460   -1.8790    3.6930 c3        1 MOL     -0.422931
     62 C22         3.3980   -0.4340    4.1760 c         1 MOL      0.819610
     63 O11         3.0660    0.4980    3.3850 o         1 MOL     -0.701488
     64 O12         3.7660   -0.1830    5.3290 o         1 MOL     -0.701488
     65 H26         1.3770   -3.8430    2.2370 hn        1 MOL      0.317679
     66 H27         1.4460   -1.8790    2.9600 h1        1 MOL      0.128139
     67 H28         4.4610   -1.9980    3.3150 hc        1 MOL      0.106644
     68 H29         3.1930   -2.4120    4.6100 hc        1 MOL      0.106644
     69 N6          1.3020   -0.8450    0.6760 n         1 MOL     -0.012250
     70 C23        -0.0550   -1.0730    1.1060 c3        1 MOL     -0.040484
     71 C24        -0.6190   -2.4210    0.6810 c         1 MOL      0.593751
     72 O13         0.1010   -3.1770    0.0670 o         1 MOL     -0.525287
     73 H30         1.4650   -0.3330   -0.1700 hn        1 MOL      0.216172
     74 H31        -0.7050   -0.3690    0.5820 h1        1 MOL      0.035569
     75 H32        -0.3340   -0.9860    2.1540 h1        1 MOL      0.035569
     76 N7         -1.8440   -2.7700    1.0390 n         1 MOL     -0.521568
     77 C25        -2.4840   -4.0460    0.6640 c3        1 MOL      0.063049
     78 C26        -3.2220   -3.9810   -0.7230 c         1 MOL      0.347286
     79 O14        -3.5360   -5.0620   -1.2500 o         1 MOL     -0.530589
     80 C27        -3.4390   -4.6090    1.7650 c3        1 MOL      0.068937
     81 C28        -4.7360   -3.8070    2.1630 c3        1 MOL     -0.314911
     82 C29        -5.8410   -3.8170    1.0490 c         1 MOL      0.480999
     83 N8         -6.6030   -4.8280    0.8350 n         1 MOL     -0.656873
     84 O15        -6.0310   -2.8240    0.3310 o         1 MOL     -0.476437
     85 H33        -2.4120   -2.0930    1.5260 hn        1 MOL      0.293172
     86 H34        -1.6730   -4.7700    0.5810 h1        1 MOL      0.108568
     87 H35        -2.8610   -4.7670    2.6720 hc        1 MOL      0.009826
     88 H36        -3.6430   -5.5730    1.2950 hc        1 MOL      0.009826
     89 H37        -4.5030   -2.7960    2.4960 hc        1 MOL      0.120412
     90 H38        -5.0810   -4.3920    3.0160 hc        1 MOL      0.120412
     91 H39        -6.4050   -5.6220    1.4120 hn        1 MOL      0.351834
     92 H40        -7.2020   -4.9080    0.0190 hn        1 MOL      0.351834
     93 N9         -3.5530   -2.8300   -1.2930 n         1 MOL      0.090304
     94 C30        -3.8850   -2.5910   -2.7080 c3        1 MOL     -0.206845
     95 C31        -5.2620   -1.8920   -3.0350 c         1 MOL      0.360692
     96 O16        -5.6360   -1.8750   -4.2330 o         1 MOL     -0.552183
     97 C32        -2.8040   -1.7980   -3.4300 c3        1 MOL      0.198482
     98 C33        -1.4500   -2.5890   -3.4500 c3        1 MOL     -0.143251
     99 C34        -2.6280   -0.4320   -2.7210 c3        1 MOL     -0.143251
    100 H41        -3.4120   -2.0550   -0.6660 hn        1 MOL      0.103958
    101 H42        -3.8760   -3.5940   -3.1460 h1        1 MOL      0.104746
    102 H43        -3.0770   -1.5570   -4.4630 hc        1 MOL      0.001900
    103 H44        -1.0900   -2.6930   -2.4290 hc        1 MOL      0.025743
    104 H45        -1.5890   -3.5620   -3.9070 hc        1 MOL      0.025743
    105 H46        -0.7210   -2.0460   -4.0580 hc        1 MOL      0.025743
    106 H47        -3.5590    0.0050   -2.3740 hc        1 MOL      0.025743
    107 H48        -1.9360   -0.5950   -1.8980 hc        1 MOL      0.025743
    108 H49        -2.1650    0.2170   -3.4670 hc        1 MOL      0.025743
    109 N10        -5.9920   -1.3470   -2.0700 n         1 MOL      0.150744
    110 C35        -7.2890   -0.5980   -2.2190 c3        1 MOL     -0.139310
    111 C36        -7.2810    0.8230   -1.6600 c         1 MOL      0.621664
    112 O17        -8.1970    1.6300   -1.9340 o         1 MOL     -0.556205
    113 C37        -8.4360   -1.4540   -1.5900 c3        1 MOL     -0.088740
    114 C38        -8.5680   -2.8770   -2.0320 c         1 MOL      0.540453
    115 N11        -8.6590   -3.1480   -3.3570 n         1 MOL     -0.749863
    116 O18        -8.6450   -3.8030   -1.2300 o         1 MOL     -0.548036
    117 H50        -5.8430   -1.7340   -1.1490 hn        1 MOL     -0.005208
    118 H51        -7.4470   -0.4640   -3.2910 h1        1 MOL      0.066065
    119 H52        -9.4050   -1.0020   -1.8010 hc        1 MOL      0.077832
    120 H53        -8.4140   -1.4510   -0.5030 hc        1 MOL      0.077832
    121 H54        -8.6400   -2.4610   -4.0870 hn        1 MOL      0.358009
    122 H55        -8.8200   -4.1300   -3.5300 hn        1 MOL      0.358009
    123 N12        -6.2650    1.0580   -0.7980 n         1 MOL     -0.699310
    124 C39        -6.1460    2.1560    0.1990 c3        1 MOL      0.464299
    125 C40        -4.7410    2.7970    0.1750 c         1 MOL      0.377545
    126 O19        -3.7990    2.2510   -0.4240 o         1 MOL     -0.428396
    127 C41        -6.3670    1.6420    1.6080 c3        1 MOL     -0.096029
    128 C42        -7.6890    0.8300    1.8590 ca        1 MOL     -0.080017
    129 C43        -7.7130   -0.5650    1.9340 ca        1 MOL     -0.036876
    130 C44        -8.8400    1.5570    1.9790 ca        1 MOL     -0.036876
    131 C45        -8.8490   -1.2160    2.4080 ca        1 MOL     -0.305726
    132 C46       -10.0040    0.9190    2.3480 ca        1 MOL     -0.305726
    133 C47       -10.0200   -0.5020    2.6440 ca        1 MOL      0.328697
    134 O20       -11.2100   -1.0450    3.0070 oh        1 MOL     -0.484878
    135 H56        -5.4930    0.4050   -0.7270 hn        1 MOL      0.303258
    136 H57        -6.9120    2.9220    0.0830 h1        1 MOL     -0.034559
    137 H58        -6.4560    2.5000    2.2710 hc        1 MOL      0.061144
    138 H59        -5.5390    1.0010    1.9220 hc        1 MOL      0.061144
    139 H60        -6.8220   -1.1600    1.7770 ha        1 MOL      0.107177
    140 H61        -8.8870    2.6260    1.8240 ha        1 MOL      0.107177
    141 H62        -8.7520   -2.2760    2.5730 ha        1 MOL      0.145925
    142 H63       -10.8740    1.5530    2.2810 ha        1 MOL      0.145925
    143 H64       -11.0070   -1.9710    3.1950 ho        1 MOL      0.357915
    144 N13        -4.5920    3.8720    1.0040 n         1 MOL     -0.687071
    145 C48        -3.2960    4.5340    1.3480 c3        1 MOL      0.362669
    146 C49        -2.3260    5.2000    0.2720 c         1 MOL      0.160601
    147 O21        -1.8300    6.3780    0.3820 o         1 MOL     -0.484149
    148 C50        -2.4880    3.6160    2.3380 c3        1 MOL     -0.085537
    149 C51        -3.2150    3.2970    3.6620 c3        1 MOL     -0.085027
    150 C52        -2.2980    2.6290    4.6390 c         1 MOL      0.649961
    151 O22        -2.1210    3.2370    5.7190 o         1 MOL     -0.706576
    152 O23        -2.1170    1.4070    4.5190 o         1 MOL     -0.706576
    153 H65        -5.3910    4.1790    1.5380 hn        1 MOL      0.341670
    154 H66        -3.5490    5.3360    2.0450 h1        1 MOL     -0.001799
    155 H67        -1.5920    4.1550    2.6550 hc        1 MOL      0.060352
    156 H68        -2.2710    2.6630    1.8440 hc        1 MOL      0.060352
    157 H69        -4.0860    2.6550    3.4980 hc        1 MOL     -0.016345
    158 H70        -3.6100    4.2050    4.1050 hc        1 MOL     -0.016345
    159 N14        -1.9970    4.3780   -0.7390 n         1 MOL     -0.006654
    160 C53        -0.9570    4.7440   -1.7360 c3        1 MOL     -0.269481
    161 C54        -1.4850    5.6290   -2.9260 c         1 MOL      0.494399
    162 O24        -0.6880    6.3030   -3.5770 o         1 MOL     -0.537737
    163 C55        -0.2480    3.3610   -2.0750 c3        1 MOL      0.007526
    164 C56         0.1800    2.3840   -0.9590 c3        1 MOL      0.253384
    165 C57         1.2340    2.8940    0.0470 c         1 MOL      0.508610
    166 O25         1.1080    3.9770    0.6060 o         1 MOL     -0.605862
    167 O26         2.2720    2.1670    0.1820 o         1 MOL     -0.605862
    168 H71        -2.1270    3.3800   -0.6970 hn        1 MOL      0.109315
    169 H72        -0.2110    5.3870   -1.2630 h1        1 MOL      0.191436
    170 H73         0.6920    3.6850   -2.5130 hc        1 MOL      0.000346
    171 H74        -0.8570    2.8880   -2.8490 hc        1 MOL      0.000346
    172 H75         0.5210    1.4900   -1.4980 hc        1 MOL     -0.096684
    173 H76        -0.6810    2.0580   -0.3810 hc        1 MOL     -0.096684
    174 N15        -2.8010    5.6650   -3.0460 n         1 MOL     -0.147271
    175 C58        -3.5890    6.3980   -4.0310 c3        1 MOL     -0.361131
    176 H77        -4.6480    6.2030   -3.8660 h1        1 MOL      0.126223
    177 H78        -3.3960    7.4660   -3.9290 h1        1 MOL      0.126223
    178 H79        -3.3120    6.0740   -5.0340 h1        1 MOL      0.126223
    179 H80        -3.3330    5.0820   -2.4260 hn        1 MOL      0.182704
    180 Ca1         4.4840    1.7430    1.3430 Ca        1 MOL      1.799614
    181 O27         6.1950    0.1170    2.6780 oh        1 MOL     -0.857586
    182 H81         7.0420   -0.1260    2.3110 ho        1 MOL      0.406815
    183 H82         6.3640    0.3000    3.5960 ho        1 MOL      0.406815
    184 O28         5.1330    3.0320    3.7490 oh        1 MOL     -0.857586
    185 H83         4.9280    2.9570    4.6770 ho        1 MOL      0.406815
    186 H84         5.5840    3.8760    3.6640 ho        1 MOL      0.406815
    187 O29         3.5410    4.5370    1.7900 oh        1 MOL     -0.857586
    188 H85         2.7570    4.3620    1.2560 ho        1 MOL      0.406815
    189 H86         3.8410    5.3930    1.4870 ho        1 MOL      0.406815
@<TRIPOS>BOND
     1    1    2 1   
     2    1    4 1   
     3    1    5 1   
     4    1    6 1   
     5    2    3 2   
     6    2    7 1   
     7    7    8 1   
     8    7   15 1   
     9    8    9 1   
    10    8   11 1   
    11    8   16 1   
    12    9   10 2   
    13    9   19 1   
    14   11   12 1   
    15   11   17 1   
    16   11   18 1   
    17   12   13 1   
    18   12   14 1   
    19   19   20 1   
    20   19   27 1   
    21   20   21 1   
    22   20   23 1   
    23   20   28 1   
    24   21   22 2   
    25   21   38 1   
    26   23   24 1   
    27   23   25 1   
    28   23   29 1   
    29   24   26 1   
    30   24   30 1   
    31   24   31 1   
    32   25   32 1   
    33   25   33 1   
    34   25   34 1   
    35   26   35 1   
    36   26   36 1   
    37   26   37 1   
    38   38   39 1   
    39   38   46 1   
    40   39   40 1   
    41   39   42 1   
    42   39   47 1   
    43   40   41 2   
    44   40   50 1   
    45   42   43 1   
    46   42   48 1   
    47   42   49 1   
    48   43   44 1   
    49   43   45 1   
    50   50   51 1   
    51   50   54 1   
    52   51   52 1   
    53   51   55 1   
    54   51   56 1   
    55   52   53 2   
    56   52   57 1   
    57   57   58 1   
    58   57   65 1   
    59   58   59 1   
    60   58   61 1   
    61   58   66 1   
    62   59   60 2   
    63   59   69 1   
    64   61   62 1   
    65   61   67 1   
    66   61   68 1   
    67   62   63 1   
    68   62   64 1   
    69   69   70 1   
    70   69   73 1   
    71   70   71 1   
    72   70   74 1   
    73   70   75 1   
    74   71   72 2   
    75   71   76 1   
    76   76   77 1   
    77   76   85 1   
    78   77   78 1   
    79   77   80 1   
    80   77   86 1   
    81   78   79 2   
    82   78   93 1   
    83   80   81 1   
    84   80   87 1   
    85   80   88 1   
    86   81   82 1   
    87   81   89 1   
    88   81   90 1   
    89   82   83 1   
    90   82   84 2   
    91   83   91 1   
    92   83   92 1   
    93   93   94 1   
    94   93  100 1   
    95   94   95 1   
    96   94   97 1   
    97   94  101 1   
    98   95   96 2   
    99   95  109 1   
   100   97   98 1   
   101   97   99 1   
   102   97  102 1   
   103   98  103 1   
   104   98  104 1   
   105   98  105 1   
   106   99  106 1   
   107   99  107 1   
   108   99  108 1   
   109  109  110 1   
   110  109  117 1   
   111  110  111 1   
   112  110  113 1   
   113  110  118 1   
   114  111  112 2   
   115  111  123 1   
   116  113  114 1   
   117  113  119 1   
   118  113  120 1   
   119  114  115 1   
   120  114  116 2   
   121  115  121 1   
   122  115  122 1   
   123  123  124 1   
   124  123  135 1   
   125  124  125 1   
   126  124  127 1   
   127  124  136 1   
   128  125  126 2   
   129  125  144 1   
   130  127  128 1   
   131  127  137 1   
   132  127  138 1   
   133  128  129 ar  
   134  128  130 ar  
   135  129  131 ar  
   136  129  139 1   
   137  130  132 ar  
   138  130  140 1   
   139  131  133 ar  
   140  131  141 1   
   141  132  133 ar  
   142  132  142 1   
   143  133  134 1   
   144  134  143 1   
   145  144  145 1   
   146  144  153 1   
   147  145  146 1   
   148  145  148 1   
   149  145  154 1   
   150  146  147 2   
   151  146  159 1   
   152  148  149 1   
   153  148  155 1   
   154  148  156 1   
   155  149  150 1   
   156  149  157 1   
   157  149  158 1   
   158  150  151 1   
   159  150  152 1   
   160  159  160 1   
   161  159  168 1   
   162  160  161 1   
   163  160  163 1   
   164  160  169 1   
   165  161  162 2   
   166  161  174 1   
   167  163  164 1   
   168  163  170 1   
   169  163  171 1   
   170  164  165 1   
   171  164  172 1   
   172  164  173 1   
   173  165  166 1   
   174  165  167 1   
   175  174  175 1   
   176  174  179 1   
   177  175  176 1   
   178  175  177 1   
   179  175  178 1   
   180  181  182 1   
   181  181  183 1   
   182  184  185 1   
   183  184  186 1   
   184  187  188 1   
   185  187  189 1   
@<TRIPOS>SUBSTRUCTURE
     1 MOL         1 TEMP              0 ****  ****    0 ROOT
