@<TRIPOS>MOLECULE
MOL
  195   189     1     0     0
SMALL
resp


@<TRIPOS>ATOM
      1 C1        -11.7060   -6.1550   -2.3110 c3        1 MOL     -0.498695
      2 C2        -11.7490   -4.8210   -1.5590 c         1 MOL      0.670331
      3 O1        -12.8190   -4.2550   -1.5180 o         1 MOL     -0.555465
      4 H1        -10.6690   -6.4300   -2.5030 hc        1 MOL      0.131191
      5 H2        -12.1790   -6.9290   -1.7060 hc        1 MOL      0.131191
      6 H3        -12.2360   -6.0570   -3.2580 hc        1 MOL      0.131191
      7 N1        -10.5910   -4.3570   -1.0280 n         1 MOL     -0.132652
      8 C3        -10.4920   -3.0770   -0.2800 c3        1 MOL     -0.541452
      9 C4         -9.3470   -2.1720   -0.7350 c         1 MOL      0.650366
     10 O2         -8.2570   -2.6220   -1.0250 o         1 MOL     -0.529672
     11 C5        -10.4120   -3.3550    1.2470 c3        1 MOL      0.101325
     12 C6         -9.3590   -4.3710    1.7760 c         1 MOL      0.547605
     13 O3         -8.3420   -4.7300    1.0680 o         1 MOL     -0.629567
     14 O4         -9.5230   -4.8280    2.9280 o         1 MOL     -0.629567
     15 H4         -9.7680   -4.9500   -1.1010 hn        1 MOL      0.051616
     16 H5        -11.3720   -2.4460   -0.4540 h1        1 MOL      0.173956
     17 H6        -11.3730   -3.6040    1.6880 hc        1 MOL      0.048842
     18 H7        -10.1740   -2.3950    1.7250 hc        1 MOL      0.048842
     19 N2         -9.5560   -0.7930   -0.7540 n         1 MOL     -0.570181
     20 C7         -8.3880    0.0840   -0.9180 c3        1 MOL      0.052026
     21 C8         -7.6350    0.1890    0.4420 c         1 MOL      0.742068
     22 O5         -8.2440    0.6250    1.3960 o         1 MOL     -0.561255
     23 C9         -8.7490    1.4450   -1.4270 c3        1 MOL     -0.346128
     24 C10        -7.6230    2.4480   -1.5080 c3        1 MOL      0.132380
     25 C11        -8.0750    3.6290   -2.2560 c3        1 MOL     -0.124403
     26 C12        -9.0800    4.4870   -1.5210 c3        1 MOL      0.057401
     27 N3         -9.4350    5.6770   -2.2950 n4        1 MOL     -0.292303
     28 H8        -10.3390   -0.4230   -0.2400 hn        1 MOL      0.352594
     29 H9         -7.7370   -0.2910   -1.7070 h1        1 MOL      0.093625
     30 H10        -9.5790    1.8070   -0.8200 hc        1 MOL      0.093037
     31 H11        -9.0630    1.3800   -2.4700 hc        1 MOL      0.093037
     32 H12        -6.7560    2.0260   -2.0080 hc        1 MOL      0.053157
     33 H13        -7.3580    2.7350   -0.4830 hc        1 MOL      0.053157
     34 H14        -8.4490    3.3840   -3.2570 hc        1 MOL      0.044987
     35 H15        -7.1760    4.2330   -2.3630 hc        1 MOL      0.044987
     36 H16        -8.6000    4.8190   -0.6030 hx        1 MOL      0.091578
     37 H17        -9.9470    3.8780   -1.2580 hx        1 MOL      0.091578
     38 H18        -9.9310    5.4970   -3.1520 hn        1 MOL      0.282823
     39 H19        -9.8540    6.4460   -1.7840 hn        1 MOL      0.282823
     40 H20        -8.5350    6.0970   -2.4950 hn        1 MOL      0.282823
     41 N4         -6.2840   -0.0310    0.5200 n         1 MOL     -0.687193
     42 C13        -5.4390    0.1920    1.6940 c3        1 MOL      0.052382
     43 C14        -3.9410    0.0870    1.2740 c         1 MOL      0.390383
     44 O6         -3.6270   -0.5600    0.2770 o         1 MOL     -0.400050
     45 C15        -5.7610   -0.7300    2.8610 c3        1 MOL     -0.362431
     46 C16        -5.5180   -2.2390    2.6090 c         1 MOL      0.848887
     47 O7         -5.0790   -2.8580    3.5670 o         1 MOL     -0.703103
     48 O8         -5.8820   -2.7800    1.5580 o         1 MOL     -0.703103
     49 H21        -5.7940   -0.5060   -0.2160 hn        1 MOL      0.209662
     50 H22        -5.6340    1.2470    1.9190 h1        1 MOL      0.144079
     51 H23        -6.7990   -0.6250    3.1740 hc        1 MOL      0.120874
     52 H24        -5.2140   -0.4140    3.7430 hc        1 MOL      0.120874
     53 N5         -3.0510    0.8470    1.9530 n         1 MOL     -0.335061
     54 C17        -3.2320    1.7930    3.0840 c3        1 MOL     -0.101588
     55 C18        -3.2990    3.2540    2.5990 c         1 MOL      0.450250
     56 O9         -4.0800    3.5990    1.6760 o         1 MOL     -0.581144
     57 H25        -2.1220    0.7170    1.5790 hn        1 MOL      0.278418
     58 H26        -2.3400    1.6350    3.6920 h1        1 MOL      0.106450
     59 H27        -4.0850    1.5180    3.6970 h1        1 MOL      0.106450
     60 N6         -2.5940    4.1470    3.2740 n         1 MOL     -0.154110
     61 C19        -2.6690    5.6190    3.2190 c3        1 MOL      0.019695
     62 C20        -1.9340    6.3490    2.0840 c         1 MOL      0.325543
     63 O10        -2.2520    7.4960    1.7600 o         1 MOL     -0.509662
     64 C21        -2.0800    6.1920    4.5020 c3        1 MOL     -0.213729
     65 C22        -0.7330    5.5720    4.9650 c         1 MOL      0.673629
     66 O11         0.3560    6.1090    4.6930 o         1 MOL     -0.654087
     67 O12        -0.7670    4.4350    5.4400 o         1 MOL     -0.654087
     68 H28        -2.1030    3.7690    4.0790 hn        1 MOL      0.136992
     69 H29        -3.6910    5.9970    3.1410 h1        1 MOL      0.079568
     70 H30        -2.8230    5.9210    5.2460 hc        1 MOL      0.053337
     71 H31        -2.0990    7.2810    4.5550 hc        1 MOL      0.053337
     72 N7         -0.9930    5.5870    1.4770 n         1 MOL     -0.016619
     73 C23        -0.0590    6.0700    0.4840 c3        1 MOL     -0.104171
     74 C24        -0.0730    5.1490   -0.7320 c         1 MOL      0.571226
     75 O13         0.8310    5.1770   -1.5210 o         1 MOL     -0.558991
     76 H32        -0.7980    4.6910    1.9000 hn        1 MOL      0.177839
     77 H33         0.9560    5.9700    0.8360 h1        1 MOL      0.085436
     78 H34        -0.1950    7.1200    0.2160 h1        1 MOL      0.085436
     79 N8         -1.1340    4.3180   -0.9340 n         1 MOL     -0.412999
     80 C25        -1.0140    3.2690   -1.9410 c3        1 MOL      0.103700
     81 C26        -0.5370    1.9350   -1.3300 c         1 MOL      0.456675
     82 O14        -0.7060    1.7840   -0.1640 o         1 MOL     -0.458698
     83 C27        -2.2900    3.0600   -2.6800 c3        1 MOL      0.261101
     84 C28        -3.4080    2.4070   -1.7990 c3        1 MOL     -0.103795
     85 O15        -2.8200    4.2830   -3.1970 oh        1 MOL     -0.620503
     86 H35        -1.8610    4.2840   -0.2430 hn        1 MOL      0.175764
     87 H36        -0.3510    3.5690   -2.7460 h1        1 MOL      0.015204
     88 H37        -2.1230    2.3110   -3.4570 h1        1 MOL     -0.046397
     89 H38        -2.1320    4.6470   -3.7510 ho        1 MOL      0.387872
     90 H39        -3.7360    3.1030   -1.0260 hc        1 MOL      0.030677
     91 H40        -4.2820    2.3430   -2.4590 hc        1 MOL      0.030677
     92 H41        -3.0940    1.4380   -1.4020 hc        1 MOL      0.030677
     93 N9         -0.0220    1.0560   -2.1680 n         1 MOL     -0.189488
     94 C29         0.5330   -0.1870   -1.6910 c3        1 MOL      0.028692
     95 C30         1.8930   -0.0660   -0.9480 c         1 MOL      0.343290
     96 O16         2.0760   -0.8320    0.0280 o         1 MOL     -0.482524
     97 C31         0.6620   -1.1590   -2.9010 c3        1 MOL      0.169197
     98 C32        -0.7560   -1.2920   -3.6330 c3        1 MOL     -0.249649
     99 C33         1.3140   -2.5260   -2.5470 c3        1 MOL     -0.245482
    100 C34        -1.8480   -1.6100   -2.7200 c3        1 MOL     -0.362846
    101 H42         0.2270    1.3300   -3.1080 hn        1 MOL      0.182798
    102 H43        -0.1290   -0.6830   -0.9850 h1        1 MOL      0.084632
    103 H44         1.3310   -0.7160   -3.6450 hc        1 MOL     -0.023092
    104 H45        -0.6840   -2.0790   -4.3750 hc        1 MOL      0.091188
    105 H46        -1.1180   -0.4050   -4.1560 hc        1 MOL      0.091188
    106 H47         2.3440   -2.4600   -2.2050 hc        1 MOL      0.077510
    107 H48         0.7930   -2.9700   -1.6970 hc        1 MOL      0.077510
    108 H49         1.3400   -3.1500   -3.4370 hc        1 MOL      0.077510
    109 H50        -2.1000   -0.8650   -1.9720 hc        1 MOL      0.094277
    110 H51        -2.7190   -1.8570   -3.3250 hc        1 MOL      0.094277
    111 H52        -1.5070   -2.5550   -2.2820 hc        1 MOL      0.094277
    112 N10         2.7460    0.9410   -1.3080 n         1 MOL     -0.295041
    113 C35         4.0150    1.3550   -0.6510 c3        1 MOL     -0.059802
    114 C36         5.0980    1.8950   -1.5870 c         1 MOL      0.551595
    115 O17         4.7980    2.3660   -2.6570 o         1 MOL     -0.513426
    116 C37         3.7420    2.5020    0.3680 c3        1 MOL      0.284511
    117 C38         3.3690    3.8910   -0.2210 c3        1 MOL     -0.062235
    118 O18         2.6750    2.1290    1.2310 oh        1 MOL     -0.557183
    119 H53         2.4090    1.4030   -2.1490 hn        1 MOL      0.199796
    120 H54         4.3500    0.4730   -0.1040 h1        1 MOL      0.091219
    121 H55         4.6120    2.6680    1.0190 h1        1 MOL     -0.017417
    122 H56         3.0540    1.4890    1.8460 ho        1 MOL      0.386672
    123 H57         4.2680    4.4520   -0.4740 hc        1 MOL      0.024301
    124 H58         2.8190    3.7990   -1.1600 hc        1 MOL      0.024301
    125 H59         2.8500    4.4760    0.5390 hc        1 MOL      0.024301
    126 N11         6.4190    1.7370   -1.2920 n         1 MOL     -0.461461
    127 C39         7.6080    1.9550   -2.1770 c3        1 MOL     -0.034231
    128 C40         8.7670    1.0060   -2.0830 c         1 MOL      0.668444
    129 O19         9.3030    0.6050   -3.1120 o         1 MOL     -0.557345
    130 C41         8.0440    3.4200   -2.1960 c3        1 MOL      0.249509
    131 C42         9.1020    3.7060   -3.2100 c3        1 MOL     -0.596171
    132 O20         8.5720    3.7220   -0.8960 oh        1 MOL     -0.652197
    133 H60         6.5660    1.1890   -0.4510 hn        1 MOL      0.234400
    134 H61         7.2230    1.7720   -3.1750 h1        1 MOL      0.104013
    135 H62         7.1530    4.0260   -2.3810 h1        1 MOL      0.090308
    136 H63         8.6710    4.6800   -0.8200 ho        1 MOL      0.420182
    137 H64         9.1550    4.7930   -3.1460 hc        1 MOL      0.164343
    138 H65        10.0490    3.1930   -3.0390 hc        1 MOL      0.164343
    139 H66         8.7100    3.3090   -4.1520 hc        1 MOL      0.164343
    140 N12         9.1160    0.5230   -0.8900 n         1 MOL     -0.565033
    141 C43        10.1540   -0.4920   -0.6010 c3        1 MOL      0.156888
    142 C44         9.6650   -1.3940    0.5310 c         1 MOL      0.472912
    143 O21         8.7990   -0.9630    1.3110 o         1 MOL     -0.460312
    144 C45        11.4580    0.2360   -0.4130 c3        1 MOL     -0.119359
    145 C46        12.7530   -0.5730   -0.2650 c3        1 MOL     -0.056707
    146 C47        13.8940    0.3530   -0.3980 c3        1 MOL     -0.160731
    147 C48        15.1470   -0.5590   -0.4130 c3        1 MOL      0.180972
    148 N13        16.3700    0.2880   -0.6190 n4        1 MOL     -0.173772
    149 H67         8.6000    0.8400   -0.0810 hn        1 MOL      0.324074
    150 H68        10.2810   -1.0110   -1.5470 h1        1 MOL      0.038829
    151 H69        11.3560    0.8890    0.4480 hc        1 MOL      0.081685
    152 H70        11.5410    0.8070   -1.3350 hc        1 MOL      0.081685
    153 H71        12.6160   -1.2560   -1.1040 hc        1 MOL      0.032658
    154 H72        12.7360   -1.0740    0.7010 hc        1 MOL      0.032658
    155 H73        14.0150    0.9130    0.5220 hc        1 MOL      0.078419
    156 H74        13.7550    0.9190   -1.3190 hc        1 MOL      0.078419
    157 H75        15.0320   -1.3170   -1.1900 hx        1 MOL      0.037984
    158 H76        15.4070   -1.0980    0.5040 hx        1 MOL      0.037984
    159 H77        16.2650    1.0490   -1.2770 hn        1 MOL      0.219725
    160 H78        16.7090    0.6770    0.2390 hn        1 MOL      0.219725
    161 H79        17.1370   -0.3180   -0.8690 hn        1 MOL      0.219725
    162 N14        10.1530   -2.6530    0.6110 n         1 MOL     -0.532879
    163 C49         9.6500   -3.6270    1.5030 c3        1 MOL      0.295858
    164 C50         8.1560   -3.8710    1.4060 c         1 MOL      0.309598
    165 O22         7.5130   -3.7220    2.4200 o         1 MOL     -0.507047
    166 C51        10.4170   -4.9950    1.6090 c3        1 MOL      0.232785
    167 C52        11.8730   -4.8840    1.9730 c3        1 MOL     -0.178534
    168 C53        12.6270   -6.2060    1.9940 c         1 MOL      0.691578
    169 O23        12.0210   -7.2790    1.7500 o         1 MOL     -0.658516
    170 O24        13.7490   -6.3070    2.5320 o         1 MOL     -0.658516
    171 H80        10.8360   -2.9360   -0.0840 hn        1 MOL      0.289008
    172 H81         9.7260   -3.2040    2.5030 h1        1 MOL      0.005026
    173 H82        10.3240   -5.4480    0.6210 hc        1 MOL     -0.033986
    174 H83         9.8760   -5.6590    2.2860 hc        1 MOL     -0.033986
    175 H84        12.0530   -4.4040    2.9310 hc        1 MOL     -0.010207
    176 H85        12.2980   -4.2730    1.1810 hc        1 MOL     -0.010207
    177 N15         7.5930   -4.1980    0.2760 n         1 MOL     -0.294659
    178 C54         8.1240   -4.8290   -0.9670 c3        1 MOL     -0.089276
    179 H86         9.1690   -5.1020   -0.8170 h1        1 MOL      0.053923
    180 H87         7.5450   -5.7230   -1.1960 h1        1 MOL      0.053923
    181 H88         8.0480   -4.1240   -1.7940 h1        1 MOL      0.053923
    182 H89         6.5900   -4.3080    0.2390 hn        1 MOL      0.283465
    183 Ca1        -6.2270   -4.4040   -0.3050 Ca        1 MOL      1.763624
    184 O25        -6.5860   -4.4330   -3.0290 oh        1 MOL     -0.897141
    185 H90        -7.2000   -3.7640   -3.3140 ho        1 MOL      0.436392
    186 H91        -6.7270   -5.1620   -3.6320 ho        1 MOL      0.436392
    187 O26        -5.6790   -5.9470    1.9290 oh        1 MOL     -0.897141
    188 H92        -6.0140   -6.7490    2.3340 ho        1 MOL      0.436392
    189 H93        -4.9100   -5.7220    2.4500 ho        1 MOL      0.436392
    190 O27        -3.4780   -4.7140    0.3220 oh        1 MOL     -0.897141
    191 O28        -5.2010   -2.2510   -1.4260 oh        1 MOL     -0.897141
    192 H94        -3.2090   -5.5570   -0.0510 ho        1 MOL      0.436392
    193 H95        -4.5280   -1.7010   -1.0220 ho        1 MOL      0.436392
    194 H96        -2.6630   -4.2240    0.4500 ho        1 MOL      0.436392
    195 H97        -5.4970   -1.7530   -2.1890 ho        1 MOL      0.436392
@<TRIPOS>BOND
     1    1    2 1   
     2    1    4 1   
     3    1    5 1   
     4    1    6 1   
     5    2    3 2   
     6    2    7 1   
     7    7    8 1   
     8    7   15 1   
     9    8    9 1   
    10    8   11 1   
    11    8   16 1   
    12    9   10 2   
    13    9   19 1   
    14   11   12 1   
    15   11   17 1   
    16   11   18 1   
    17   12   13 1   
    18   12   14 1   
    19   19   20 1   
    20   19   28 1   
    21   20   21 1   
    22   20   23 1   
    23   20   29 1   
    24   21   22 2   
    25   21   41 1   
    26   23   24 1   
    27   23   30 1   
    28   23   31 1   
    29   24   25 1   
    30   24   32 1   
    31   24   33 1   
    32   25   26 1   
    33   25   34 1   
    34   25   35 1   
    35   26   27 1   
    36   26   36 1   
    37   26   37 1   
    38   27   38 1   
    39   27   39 1   
    40   27   40 1   
    41   41   42 1   
    42   41   49 1   
    43   42   43 1   
    44   42   45 1   
    45   42   50 1   
    46   43   44 2   
    47   43   53 1   
    48   45   46 1   
    49   45   51 1   
    50   45   52 1   
    51   46   47 1   
    52   46   48 1   
    53   53   54 1   
    54   53   57 1   
    55   54   55 1   
    56   54   58 1   
    57   54   59 1   
    58   55   56 2   
    59   55   60 1   
    60   60   61 1   
    61   60   68 1   
    62   61   62 1   
    63   61   64 1   
    64   61   69 1   
    65   62   63 2   
    66   62   72 1   
    67   64   65 1   
    68   64   70 1   
    69   64   71 1   
    70   65   66 1   
    71   65   67 1   
    72   72   73 1   
    73   72   76 1   
    74   73   74 1   
    75   73   77 1   
    76   73   78 1   
    77   74   75 2   
    78   74   79 1   
    79   79   80 1   
    80   79   86 1   
    81   80   81 1   
    82   80   83 1   
    83   80   87 1   
    84   81   82 2   
    85   81   93 1   
    86   83   84 1   
    87   83   85 1   
    88   83   88 1   
    89   84   90 1   
    90   84   91 1   
    91   84   92 1   
    92   85   89 1   
    93   93   94 1   
    94   93  101 1   
    95   94   95 1   
    96   94   97 1   
    97   94  102 1   
    98   95   96 2   
    99   95  112 1   
   100   97   98 1   
   101   97   99 1   
   102   97  103 1   
   103   98  100 1   
   104   98  104 1   
   105   98  105 1   
   106   99  106 1   
   107   99  107 1   
   108   99  108 1   
   109  100  109 1   
   110  100  110 1   
   111  100  111 1   
   112  112  113 1   
   113  112  119 1   
   114  113  114 1   
   115  113  116 1   
   116  113  120 1   
   117  114  115 2   
   118  114  126 1   
   119  116  117 1   
   120  116  118 1   
   121  116  121 1   
   122  117  123 1   
   123  117  124 1   
   124  117  125 1   
   125  118  122 1   
   126  126  127 1   
   127  126  133 1   
   128  127  128 1   
   129  127  130 1   
   130  127  134 1   
   131  128  129 2   
   132  128  140 1   
   133  130  131 1   
   134  130  132 1   
   135  130  135 1   
   136  131  137 1   
   137  131  138 1   
   138  131  139 1   
   139  132  136 1   
   140  140  141 1   
   141  140  149 1   
   142  141  142 1   
   143  141  144 1   
   144  141  150 1   
   145  142  143 2   
   146  142  162 1   
   147  144  145 1   
   148  144  151 1   
   149  144  152 1   
   150  145  146 1   
   151  145  153 1   
   152  145  154 1   
   153  146  147 1   
   154  146  155 1   
   155  146  156 1   
   156  147  148 1   
   157  147  157 1   
   158  147  158 1   
   159  148  159 1   
   160  148  160 1   
   161  148  161 1   
   162  162  163 1   
   163  162  171 1   
   164  163  164 1   
   165  163  166 1   
   166  163  172 1   
   167  164  165 2   
   168  164  177 1   
   169  166  167 1   
   170  166  173 1   
   171  166  174 1   
   172  167  168 1   
   173  167  175 1   
   174  167  176 1   
   175  168  169 1   
   176  168  170 1   
   177  177  178 1   
   178  177  182 1   
   179  178  179 1   
   180  178  180 1   
   181  178  181 1   
   182  184  185 1   
   183  184  186 1   
   184  187  188 1   
   185  187  189 1   
   186  190  192 1   
   187  190  194 1   
   188  191  193 1   
   189  191  195 1   
@<TRIPOS>SUBSTRUCTURE
     1 MOL         1 TEMP              0 ****  ****    0 ROOT
