@<TRIPOS>MOLECULE
MOL
  186   183     1     0     0
SMALL
resp


@<TRIPOS>ATOM
      1 C1          4.1400    3.7930   -3.3420 c3        1 MOL     -0.500317
      2 C2          5.0560    3.0470   -2.3280 c         1 MOL      0.841460
      3 O1          4.6190    2.8440   -1.1700 o         1 MOL     -0.693880
      4 H1          3.1650    3.3070   -3.3760 hc        1 MOL      0.125993
      5 H2          4.0190    4.8290   -3.0290 hc        1 MOL      0.125993
      6 H3          4.5940    3.7640   -4.3330 hc        1 MOL      0.125993
      7 N1          6.1860    2.5570   -2.8280 n         1 MOL     -0.674550
      8 C3          6.9980    1.4590   -2.3090 c3        1 MOL      0.442819
      9 C4          6.1590    0.2400   -1.9090 c         1 MOL      0.046879
     10 O2          5.7600    0.1010   -0.7330 o         1 MOL     -0.430826
     11 C5          8.1230    1.8460   -1.3670 c3        1 MOL     -0.248427
     12 C6          7.5630    2.8490   -0.4100 c         1 MOL      0.836515
     13 O3          6.8280    2.4600    0.5000 o         1 MOL     -0.764860
     14 O4          7.9010    4.0760   -0.5770 o         1 MOL     -0.764860
     15 H4          6.3800    2.6700   -3.8090 hn        1 MOL      0.323042
     16 H5          7.5190    1.1540   -3.2200 h1        1 MOL     -0.031959
     17 H6          8.8640    2.4080   -1.9370 hc        1 MOL      0.039274
     18 H7          8.5570    1.0200   -0.7990 hc        1 MOL      0.039274
     19 N2          5.7670   -0.5320   -2.9160 n         1 MOL     -0.271314
     20 C7          5.0120   -1.7730   -2.8740 c3        1 MOL      0.026210
     21 C8          5.6220   -2.9080   -2.0210 c         1 MOL      0.385398
     22 O5          5.7120   -4.0300   -2.5060 o         1 MOL     -0.548061
     23 C9          3.5520   -1.5560   -2.3940 c3        1 MOL     -0.013420
     24 C10         2.6760   -2.8430   -2.5680 c3        1 MOL      0.048703
     25 C11         2.8400   -0.2500   -3.0530 c3        1 MOL     -0.171401
     26 C12         2.6630   -3.3770   -3.9820 c3        1 MOL     -0.127032
     27 H8          6.1680   -0.2720   -3.8000 hn        1 MOL      0.248456
     28 H9          4.8960   -2.1020   -3.9120 h1        1 MOL      0.054461
     29 H10         3.5960   -1.3770   -1.3210 hc        1 MOL      0.069272
     30 H11         1.6410   -2.6530   -2.2750 hc        1 MOL      0.031026
     31 H12         2.9650   -3.6770   -1.9430 hc        1 MOL      0.031026
     32 H13         3.3170    0.6900   -2.7680 hc        1 MOL      0.038080
     33 H14         2.8720   -0.2270   -4.1350 hc        1 MOL      0.038080
     34 H15         1.7930   -0.1420   -2.7540 hc        1 MOL      0.038080
     35 H16         2.5180   -2.5870   -4.7210 hc        1 MOL      0.012763
     36 H17         3.5950   -3.9130   -4.1700 hc        1 MOL      0.012763
     37 H18         1.8510   -4.0920   -4.0850 hc        1 MOL      0.012763
     38 N3          6.0840   -2.5790   -0.8310 n         1 MOL     -0.192942
     39 C13         6.7280   -3.5310    0.0920 c3        1 MOL      0.054329
     40 C14         5.8970   -4.7210    0.5890 c         1 MOL      0.537231
     41 O6          6.4620   -5.7950    0.8340 o         1 MOL     -0.583231
     42 C15         7.5230   -2.8530    1.1910 c3        1 MOL     -0.266119
     43 C16         8.4750   -1.7370    0.7160 c         1 MOL      0.736642
     44 O7          9.1660   -1.8330   -0.3440 o         1 MOL     -0.715778
     45 O8          8.6620   -0.7020    1.4270 o         1 MOL     -0.715778
     46 H19         5.9530   -1.6440   -0.4730 hn        1 MOL      0.387047
     47 H20         7.4110   -3.9810   -0.6270 h1        1 MOL      0.035778
     48 H21         8.1480   -3.5920    1.6840 hc        1 MOL      0.070955
     49 H22         6.7950   -2.3850    1.8450 hc        1 MOL      0.070955
     50 N4          4.6480   -4.6610    1.0570 n         1 MOL     -0.500333
     51 C17         3.8350   -3.4750    1.3880 c3        1 MOL      0.027777
     52 C18         4.1610   -2.8410    2.8050 c         1 MOL      0.569369
     53 O9          5.2160   -3.1130    3.3470 o         1 MOL     -0.509233
     54 H23         4.2370   -5.5350    1.3450 hn        1 MOL      0.295378
     55 H24         2.7990   -3.8100    1.4250 h1        1 MOL      0.056105
     56 H25         4.0320   -2.7110    0.6400 h1        1 MOL      0.056105
     57 N5          3.3560   -1.9490    3.4650 n         1 MOL     -0.657407
     58 C19         2.0980   -1.4170    2.9850 c3        1 MOL      0.449948
     59 C20         2.0400   -0.8630    1.5090 c         1 MOL      0.061687
     60 O10         3.1320   -0.5430    0.9530 o         1 MOL     -0.581958
     61 C21         1.6920   -0.2550    3.9170 c3        1 MOL     -0.378545
     62 C22         2.8040    0.6960    4.2490 c         1 MOL      0.851738
     63 O11         3.1560    1.5230    3.3740 o         1 MOL     -0.730750
     64 O12         3.4220    0.5590    5.3390 o         1 MOL     -0.730750
     65 H26         3.7030   -1.5020    4.3080 hn        1 MOL      0.353620
     66 H27         1.2460   -2.0880    3.0760 h1        1 MOL     -0.054353
     67 H28         1.3770   -0.7130    4.8550 hc        1 MOL      0.084445
     68 H29         0.8900    0.3330    3.4560 hc        1 MOL      0.084445
     69 N6          0.9020   -0.6480    0.8470 n         1 MOL     -0.081030
     70 C23        -0.3930   -1.1720    1.1500 c3        1 MOL     -0.081160
     71 C24        -0.6140   -2.6650    0.7670 c         1 MOL      0.550442
     72 O13         0.2760   -3.2630    0.1350 o         1 MOL     -0.521120
     73 H30         0.9390   -0.0840    0.0150 hn        1 MOL      0.215029
     74 H31        -1.0540   -0.4590    0.6600 h1        1 MOL      0.075834
     75 H32        -0.5970   -1.0480    2.2100 h1        1 MOL      0.075834
     76 N7         -1.8480   -3.1440    0.9710 n         1 MOL     -0.446393
     77 C25        -2.3980   -4.3420    0.4100 c3        1 MOL      0.091895
     78 C26        -3.1970   -4.1230   -0.9290 c         1 MOL      0.333627
     79 O14        -3.4470   -5.1290   -1.6100 o         1 MOL     -0.523123
     80 C27        -3.2040   -5.0290    1.5020 c3        1 MOL     -0.132042
     81 C28        -4.2920   -4.1790    2.1740 c3        1 MOL     -0.261526
     82 C29        -5.4590   -3.8230    1.2990 c         1 MOL      0.476944
     83 N8         -6.2240   -4.7460    0.8540 n         1 MOL     -0.643843
     84 O15        -5.6170   -2.5940    1.0600 o         1 MOL     -0.502732
     85 H33        -2.4930   -2.6160    1.5380 hn        1 MOL      0.303972
     86 H34        -1.5550   -5.0150    0.2210 h1        1 MOL      0.110109
     87 H35        -2.5690   -5.4690    2.2590 hc        1 MOL      0.062873
     88 H36        -3.7580   -5.8750    1.0830 hc        1 MOL      0.062873
     89 H37        -3.8270   -3.2870    2.5730 hc        1 MOL      0.110822
     90 H38        -4.7060   -4.7310    3.0210 hc        1 MOL      0.110822
     91 H39        -6.0630   -5.7370    0.8940 hn        1 MOL      0.344352
     92 H40        -7.1070   -4.4870    0.4330 hn        1 MOL      0.344352
     93 N9         -3.4780   -2.8940   -1.2640 n         1 MOL     -0.150797
     94 C30        -3.7600   -2.5010   -2.7070 c3        1 MOL     -0.079429
     95 C31        -5.1510   -1.7960   -2.8610 c         1 MOL      0.496160
     96 O16        -5.4500   -1.6280   -4.0190 o         1 MOL     -0.566859
     97 C32        -2.6310   -1.7230   -3.3170 c3        1 MOL      0.074934
     98 C33        -1.2880   -2.4610   -3.1760 c3        1 MOL     -0.071231
     99 C34        -2.4970   -0.2940   -2.7840 c3        1 MOL     -0.071231
    100 H41        -3.1450   -2.1590   -0.6570 hn        1 MOL      0.147288
    101 H42        -4.0000   -3.4410   -3.2150 h1        1 MOL      0.115631
    102 H43        -2.9320   -1.6930   -4.3590 hc        1 MOL      0.024950
    103 H44        -0.6600   -2.0890   -3.9860 hc        1 MOL      0.019564
    104 H45        -0.9090   -2.1530   -2.2060 hc        1 MOL      0.019564
    105 H46        -1.4600   -3.5290   -3.3130 hc        1 MOL      0.019564
    106 H47        -1.6260    0.1990   -3.2290 hc        1 MOL      0.019564
    107 H48        -3.3420    0.3470   -3.0290 hc        1 MOL      0.019564
    108 H49        -2.3890   -0.3030   -1.7050 hc        1 MOL      0.019564
    109 N10        -6.0080   -1.5610   -1.8760 n         1 MOL     -0.207937
    110 C35        -7.2920   -1.0010   -2.0420 c3        1 MOL      0.014712
    111 C36        -7.3720    0.3970   -1.3630 c         1 MOL      0.461269
    112 O17        -8.5100    0.8850   -1.2250 o         1 MOL     -0.530711
    113 C37        -8.3730   -2.0010   -1.5270 c3        1 MOL     -0.197770
    114 C38        -8.2110   -3.4030   -2.0500 c         1 MOL      0.644712
    115 N11        -8.1610   -3.4750   -3.3450 n         1 MOL     -0.787804
    116 O18        -8.0610   -4.3380   -1.3030 o         1 MOL     -0.562663
    117 H50        -5.8370   -1.8180   -0.9160 hn        1 MOL      0.229876
    118 H51        -7.4610   -0.8020   -3.1050 h1        1 MOL      0.061301
    119 H52        -9.3740   -1.7170   -1.8310 hc        1 MOL      0.050569
    120 H53        -8.3540   -2.0250   -0.4390 hc        1 MOL      0.050569
    121 H54        -8.3180   -2.6110   -3.8300 hn        1 MOL      0.379393
    122 H55        -7.9750   -4.3570   -3.8020 hn        1 MOL      0.379393
    123 N12        -6.2530    1.0060   -0.8880 n         1 MOL     -0.402307
    124 C39        -6.3070    2.3120   -0.2120 c3        1 MOL      0.279349
    125 C40        -4.8710    2.9570   -0.1090 c         1 MOL      0.135679
    126 O19        -3.8730    2.2950   -0.2520 o         1 MOL     -0.293573
    127 C41        -6.8770    2.1460    1.2260 c3        1 MOL     -0.001421
    128 C42        -6.5660    0.9210    2.0080 ca        1 MOL      0.146056
    129 C43        -7.4720   -0.0980    2.1640 ca        1 MOL     -0.245570
    130 C44        -5.4010    0.9210    2.7870 ca        1 MOL     -0.245570
    131 C45        -7.1530   -1.1580    3.0890 ca        1 MOL     -0.181334
    132 C46        -5.0880   -0.1200    3.6720 ca        1 MOL     -0.181334
    133 C47        -5.9420   -1.1860    3.7910 ca        1 MOL      0.248934
    134 O20        -5.5640   -2.3130    4.4900 oh        1 MOL     -0.441812
    135 H56        -5.3480    0.5720   -0.9070 hn        1 MOL      0.187219
    136 H57        -6.9300    3.0290   -0.7530 h1        1 MOL      0.013542
    137 H58        -7.9570    2.0640    1.0840 hc        1 MOL     -0.012216
    138 H59        -6.5850    3.0620    1.7460 hc        1 MOL     -0.012216
    139 H60        -8.3990   -0.1140    1.6140 ha        1 MOL      0.168078
    140 H61        -4.7270    1.7610    2.6800 ha        1 MOL      0.168078
    141 H62        -7.8510   -1.9550    3.3090 ha        1 MOL      0.134379
    142 H63        -4.2330   -0.1550    4.3260 ha        1 MOL      0.134379
    143 H64        -6.2530   -2.9660    4.5760 ho        1 MOL      0.303691
    144 N13        -4.8260    4.2250    0.3300 n         1 MOL     -0.315318
    145 C48        -3.6860    5.0840    0.6810 c3        1 MOL     -0.001104
    146 C49        -2.5920    5.3260   -0.3830 c         1 MOL      0.177819
    147 O21        -2.1220    6.4270   -0.5810 o         1 MOL     -0.502306
    148 C50        -2.9840    4.6380    1.9270 c3        1 MOL      0.459806
    149 C51        -3.8080    4.8940    3.2010 c3        1 MOL     -0.419265
    150 C52        -3.0760    4.5050    4.4400 c         1 MOL      0.872322
    151 O22        -1.8900    4.0750    4.3880 o         1 MOL     -0.777462
    152 O23        -3.6970    4.5530    5.5340 o         1 MOL     -0.777462
    153 H65        -5.6910    4.7030    0.1130 hn        1 MOL      0.241969
    154 H66        -4.0650    6.1030    0.7900 h1        1 MOL      0.043326
    155 H67        -2.0970    5.2580    2.0420 hc        1 MOL     -0.013148
    156 H68        -2.8640    3.5560    1.8650 hc        1 MOL     -0.013148
    157 H69        -4.7630    4.3720    3.1090 hc        1 MOL      0.017112
    158 H70        -4.0740    5.9440    3.2820 hc        1 MOL      0.017112
    159 N14        -2.0480    4.2710   -0.9360 n         1 MOL      0.264554
    160 C53        -0.8810    4.3160   -1.7970 c3        1 MOL     -0.348132
    161 C54        -1.2190    4.9510   -3.1530 c         1 MOL      0.568272
    162 O24        -0.4100    5.5120   -3.8520 o         1 MOL     -0.527113
    163 C55        -0.1690    2.9470   -2.0670 c3        1 MOL      0.097821
    164 C56         0.2080    2.0230   -0.9030 c3        1 MOL      0.235042
    165 C57         0.8850    2.7760    0.2190 c         1 MOL      0.658398
    166 O25         0.2490    3.4060    1.0880 o         1 MOL     -0.687880
    167 O26         2.0870    2.5890    0.3660 o         1 MOL     -0.687880
    168 H71        -2.3160    3.3740   -0.5610 hn        1 MOL     -0.047536
    169 H72        -0.1080    4.9750   -1.4170 h1        1 MOL      0.166216
    170 H73         0.7430    3.0770   -2.6350 hc        1 MOL     -0.033583
    171 H74        -0.8730    2.3400   -2.6500 hc        1 MOL     -0.033583
    172 H75         0.8320    1.1940   -1.2280 hc        1 MOL     -0.102249
    173 H76        -0.6950    1.5810   -0.4660 hc        1 MOL     -0.102249
    174 N15        -2.4840    4.7280   -3.6440 n         1 MOL     -0.358665
    175 C58        -3.1210    5.6730   -4.6200 c3        1 MOL     -0.308713
    176 H77        -4.1370    5.3410   -4.8380 h1        1 MOL      0.122412
    177 H78        -3.1510    6.6750   -4.1910 h1        1 MOL      0.122412
    178 H79        -2.5400    5.6900   -5.5430 h1        1 MOL      0.122412
    179 H80        -3.0920    4.1400   -3.0890 hn        1 MOL      0.230618
    180 Ca1         4.4500    1.7740    1.1300 Ca        1 MOL      1.833083
    181 O27         6.2460    0.2780    2.3190 oh        1 MOL     -0.954016
    182 H81         6.5120   -0.3150    3.0190 ho        1 MOL      0.448444
    183 H82         6.9760    0.2410    1.6890 ho        1 MOL      0.448444
    184 O28         4.8340    4.1610    2.2560 oh        1 MOL     -0.954016
    185 H83         4.3040    4.7970    2.7370 ho        1 MOL      0.448444
    186 H84         5.6400    4.6300    2.0430 ho        1 MOL      0.448444
@<TRIPOS>BOND
     1    1    2 1   
     2    1    4 1   
     3    1    5 1   
     4    1    6 1   
     5    2    3 2   
     6    2    7 1   
     7    7    8 1   
     8    7   15 1   
     9    8    9 1   
    10    8   11 1   
    11    8   16 1   
    12    9   10 2   
    13    9   19 1   
    14   11   12 1   
    15   11   17 1   
    16   11   18 1   
    17   12   13 1   
    18   12   14 1   
    19   19   20 1   
    20   19   27 1   
    21   20   21 1   
    22   20   23 1   
    23   20   28 1   
    24   21   22 2   
    25   21   38 1   
    26   23   24 1   
    27   23   25 1   
    28   23   29 1   
    29   24   26 1   
    30   24   30 1   
    31   24   31 1   
    32   25   32 1   
    33   25   33 1   
    34   25   34 1   
    35   26   35 1   
    36   26   36 1   
    37   26   37 1   
    38   38   39 1   
    39   38   46 1   
    40   39   40 1   
    41   39   42 1   
    42   39   47 1   
    43   40   41 2   
    44   40   50 1   
    45   42   43 1   
    46   42   48 1   
    47   42   49 1   
    48   43   44 1   
    49   43   45 1   
    50   50   51 1   
    51   50   54 1   
    52   51   52 1   
    53   51   55 1   
    54   51   56 1   
    55   52   53 2   
    56   52   57 1   
    57   57   58 1   
    58   57   65 1   
    59   58   59 1   
    60   58   61 1   
    61   58   66 1   
    62   59   60 2   
    63   59   69 1   
    64   61   62 1   
    65   61   67 1   
    66   61   68 1   
    67   62   63 1   
    68   62   64 1   
    69   69   70 1   
    70   69   73 1   
    71   70   71 1   
    72   70   74 1   
    73   70   75 1   
    74   71   72 2   
    75   71   76 1   
    76   76   77 1   
    77   76   85 1   
    78   77   78 1   
    79   77   80 1   
    80   77   86 1   
    81   78   79 2   
    82   78   93 1   
    83   80   81 1   
    84   80   87 1   
    85   80   88 1   
    86   81   82 1   
    87   81   89 1   
    88   81   90 1   
    89   82   83 1   
    90   82   84 2   
    91   83   91 1   
    92   83   92 1   
    93   93   94 1   
    94   93  100 1   
    95   94   95 1   
    96   94   97 1   
    97   94  101 1   
    98   95   96 2   
    99   95  109 1   
   100   97   98 1   
   101   97   99 1   
   102   97  102 1   
   103   98  103 1   
   104   98  104 1   
   105   98  105 1   
   106   99  106 1   
   107   99  107 1   
   108   99  108 1   
   109  109  110 1   
   110  109  117 1   
   111  110  111 1   
   112  110  113 1   
   113  110  118 1   
   114  111  112 2   
   115  111  123 1   
   116  113  114 1   
   117  113  119 1   
   118  113  120 1   
   119  114  115 1   
   120  114  116 2   
   121  115  121 1   
   122  115  122 1   
   123  123  124 1   
   124  123  135 1   
   125  124  125 1   
   126  124  127 1   
   127  124  136 1   
   128  125  126 2   
   129  125  144 1   
   130  127  128 1   
   131  127  137 1   
   132  127  138 1   
   133  128  129 ar  
   134  128  130 ar  
   135  129  131 ar  
   136  129  139 1   
   137  130  132 ar  
   138  130  140 1   
   139  131  133 ar  
   140  131  141 1   
   141  132  133 ar  
   142  132  142 1   
   143  133  134 1   
   144  134  143 1   
   145  144  145 1   
   146  144  153 1   
   147  145  146 1   
   148  145  148 1   
   149  145  154 1   
   150  146  147 2   
   151  146  159 1   
   152  148  149 1   
   153  148  155 1   
   154  148  156 1   
   155  149  150 1   
   156  149  157 1   
   157  149  158 1   
   158  150  151 1   
   159  150  152 1   
   160  159  160 1   
   161  159  168 1   
   162  160  161 1   
   163  160  163 1   
   164  160  169 1   
   165  161  162 2   
   166  161  174 1   
   167  163  164 1   
   168  163  170 1   
   169  163  171 1   
   170  164  165 1   
   171  164  172 1   
   172  164  173 1   
   173  165  166 1   
   174  165  167 1   
   175  174  175 1   
   176  174  179 1   
   177  175  176 1   
   178  175  177 1   
   179  175  178 1   
   180  181  182 1   
   181  181  183 1   
   182  184  185 1   
   183  184  186 1   
@<TRIPOS>SUBSTRUCTURE
     1 MOL         1 TEMP              0 ****  ****    0 ROOT
