@<TRIPOS>MOLECULE
MOL
  179   176     1     0     0
SMALL
resp


@<TRIPOS>ATOM
      1 C1          0.1060   -2.9270    6.6340 c3        1 MOL     -0.329617
      2 C2          0.1900   -3.0140    5.0740 c         1 MOL      0.746485
      3 O1         -0.7980   -3.3510    4.4180 o         1 MOL     -0.575739
      4 H1         -0.0350   -1.8880    6.9320 hc        1 MOL      0.092424
      5 H2         -0.7360   -3.5220    6.9870 hc        1 MOL      0.092424
      6 H3          1.0290   -3.3080    7.0700 hc        1 MOL      0.092424
      7 N1          1.3990   -2.8480    4.5350 n         1 MOL     -0.630111
      8 C3          1.6020   -2.8580    3.0450 c3        1 MOL      0.032211
      9 C4          1.4590   -4.2600    2.3500 c         1 MOL      0.665804
     10 O2          1.8900   -5.2870    2.8960 o         1 MOL     -0.536816
     11 C5          3.0110   -2.1970    2.8360 c3        1 MOL     -0.411572
     12 C6          3.2280   -1.5720    1.4820 c         1 MOL      0.615574
     13 O3          3.9410   -0.5600    1.3210 o         1 MOL     -0.701270
     14 O4          2.7760   -1.9770    0.3580 o         1 MOL     -0.701270
     15 H4          2.1670   -2.6430    5.1500 hn        1 MOL      0.349894
     16 H5          0.8510   -2.2040    2.6050 h1        1 MOL      0.069419
     17 H6          3.7540   -2.9730    3.0380 hc        1 MOL      0.186945
     18 H7          3.1020   -1.4230    3.5940 hc        1 MOL      0.186945
     19 N2          1.1120   -4.3030    1.0140 n         1 MOL     -0.593890
     20 C7          1.0760   -5.5680    0.1560 c3        1 MOL      0.103027
     21 C8          2.2500   -5.5970   -0.9080 c         1 MOL      0.446821
     22 O5          2.6720   -6.7500   -1.2930 o         1 MOL     -0.567203
     23 C9         -0.3350   -5.7110   -0.4650 c3        1 MOL     -0.139229
     24 C10        -0.5270   -6.8500   -1.4480 c3        1 MOL     -0.050151
     25 C11        -2.0160   -7.0680   -1.7960 c3        1 MOL      0.004174
     26 C12        -2.3130   -8.3840   -2.6250 c3        1 MOL     -0.152832
     27 N3         -3.7840   -8.6420   -2.8300 n4        1 MOL     -0.122464
     28 H8          0.9800   -3.4500    0.4950 hn        1 MOL      0.408314
     29 H9          1.2960   -6.3960    0.8270 h1        1 MOL      0.112874
     30 H10        -0.6000   -4.8690   -1.0970 hc        1 MOL      0.049916
     31 H11        -1.1100   -5.6140    0.2990 hc        1 MOL      0.049916
     32 H12        -0.0490   -7.7510   -1.0820 hc        1 MOL      0.045099
     33 H13         0.0450   -6.6630   -2.3570 hc        1 MOL      0.045099
     34 H14        -2.3790   -6.1730   -2.3140 hc        1 MOL      0.049594
     35 H15        -2.6450   -7.0210   -0.9040 hc        1 MOL      0.049594
     36 H16        -1.8500   -9.1410   -2.0000 hx        1 MOL      0.129422
     37 H17        -1.7830   -8.2940   -3.5730 hx        1 MOL      0.129422
     38 H18        -3.9380   -9.5130   -3.3280 hn        1 MOL      0.231108
     39 H19        -4.3730   -8.7350   -2.0220 hn        1 MOL      0.231108
     40 H20        -4.3100   -7.9310   -3.3210 hn        1 MOL      0.231108
     41 N4          2.9090   -4.4900   -1.1790 n         1 MOL     -0.207327
     42 C13         4.1450   -4.4150   -1.9930 c3        1 MOL      0.121925
     43 C14         5.3820   -4.0460   -1.2260 c         1 MOL      0.444454
     44 O6          6.4320   -4.5680   -1.5940 o         1 MOL     -0.527125
     45 C15         3.9400   -3.4260   -3.1780 c3        1 MOL     -0.427403
     46 C16         3.4690   -2.0840   -2.7200 c         1 MOL      0.813569
     47 O7          4.2550   -1.2120   -2.2020 o         1 MOL     -0.728249
     48 O8          2.2610   -1.7840   -2.8420 o         1 MOL     -0.728249
     49 H21         2.5840   -3.6020   -0.8200 hn        1 MOL      0.086489
     50 H22         4.3240   -5.3920   -2.4330 h1        1 MOL      0.090534
     51 H23         3.0910   -3.7130   -3.7980 hc        1 MOL      0.128967
     52 H24         4.8540   -3.3160   -3.7610 hc        1 MOL      0.128967
     53 N5          5.2890   -3.2590   -0.1330 n         1 MOL     -0.120867
     54 C17         6.4020   -2.9500    0.8080 c3        1 MOL     -0.123441
     55 C18         7.2450   -1.6850    0.4600 c         1 MOL      0.656464
     56 O9          8.2630   -1.4850    1.1200 o         1 MOL     -0.603172
     57 H25         4.4170   -2.7550   -0.1600 hn        1 MOL      0.021316
     58 H26         7.0290   -3.8350    0.8880 h1        1 MOL      0.089390
     59 H27         6.0720   -2.7400    1.8280 h1        1 MOL      0.089390
     60 N6          6.8430   -0.8270   -0.4820 n         1 MOL     -0.338851
     61 C19         7.4950    0.4920   -0.8330 c3        1 MOL      0.298239
     62 C20         6.3800    1.6340   -0.8860 c         1 MOL      0.461345
     63 O10         5.1130    1.4030   -0.8570 o         1 MOL     -0.464846
     64 C21         8.2960    0.2970   -2.1500 c3        1 MOL     -0.448895
     65 C22         9.6160   -0.5410   -1.9510 c         1 MOL      0.709353
     66 N7         10.3470   -0.4550   -0.8850 n         1 MOL     -0.838433
     67 O11        10.0130   -1.3240   -2.8370 o         1 MOL     -0.558528
     68 H28         5.9590   -1.0640   -0.9160 hn        1 MOL      0.180699
     69 H29         8.2390    0.7450   -0.0760 h1        1 MOL     -0.056922
     70 H30         8.5220    1.3050   -2.4840 hc        1 MOL      0.123790
     71 H31         7.6570   -0.1670   -2.8980 hc        1 MOL      0.123790
     72 H32        10.0640    0.1190   -0.1060 hn        1 MOL      0.400206
     73 H33        11.1040   -1.0890   -0.7160 hn        1 MOL      0.400206
     74 N8          6.8340    2.9260   -0.9840 n         1 MOL     -0.425640
     75 C23         5.9270    4.0400   -1.2520 c3        1 MOL     -0.073357
     76 C24         4.9830    4.3420   -0.1280 c         1 MOL      0.570362
     77 O12         5.2780    4.0020    1.0440 o         1 MOL     -0.499936
     78 H34         7.8350    3.0730   -0.9320 hn        1 MOL      0.316105
     79 H35         5.4070    3.8100   -2.1830 h1        1 MOL      0.081947
     80 H36         6.5670    4.9120   -1.4110 h1        1 MOL      0.081947
     81 N9          3.8030    4.8760   -0.4630 n         1 MOL     -0.511850
     82 C25         2.6730    4.9010    0.4770 c3        1 MOL      0.070236
     83 C26         1.9920    3.5290    0.8150 c         1 MOL      0.677887
     84 O13         2.3920    2.5480    0.2670 o         1 MOL     -0.562725
     85 C27         1.6360    5.8090   -0.1180 c3        1 MOL     -0.103292
     86 C28         2.0120    7.2330   -0.5410 ca        1 MOL      0.078750
     87 C29         1.9790    8.2970    0.4370 ca        1 MOL     -0.173008
     88 C30         2.4820    7.5260   -1.8260 ca        1 MOL     -0.173008
     89 C31         2.2890    9.6180    0.1190 ca        1 MOL     -0.239293
     90 C32         2.8330    8.8360   -2.1460 ca        1 MOL     -0.239293
     91 C33         2.8060    9.8590   -1.1340 ca        1 MOL      0.344355
     92 O14         3.0900   11.1430   -1.4900 oh        1 MOL     -0.500984
     93 H37         3.6060    5.1260   -1.4160 hn        1 MOL      0.259689
     94 H38         2.9770    5.3940    1.4020 h1        1 MOL      0.091441
     95 H39         0.8510    5.9000    0.6380 hc        1 MOL      0.018849
     96 H40         1.2030    5.3770   -1.0160 hc        1 MOL      0.018849
     97 H41         1.6030    8.0590    1.4230 ha        1 MOL      0.132808
     98 H42         2.6660    6.7310   -2.5430 ha        1 MOL      0.132808
     99 H43         2.3410   10.3800    0.8810 ha        1 MOL      0.158973
    100 H44         3.1290    9.0480   -3.1540 ha        1 MOL      0.158973
    101 H45         2.6960   11.7750   -0.8720 ho        1 MOL      0.382855
    102 N10         0.9280    3.5170    1.6530 n         1 MOL     -0.714551
    103 C34         0.2830    2.3610    2.2960 c3        1 MOL      0.097309
    104 C35        -0.0640    1.1470    1.4040 c         1 MOL      0.590628
    105 O15         0.8230    0.3770    0.9680 o         1 MOL     -0.483331
    106 C36         1.2840    1.9340    3.4110 c3        1 MOL      0.067141
    107 C37         0.8070    0.6350    4.1900 c3        1 MOL      0.009878
    108 C38         1.6520    2.9690    4.4940 c3        1 MOL     -0.237075
    109 C39        -0.6860    0.6940    4.6040 c3        1 MOL     -0.454406
    110 H46         0.5730    4.4130    1.9700 hn        1 MOL      0.385989
    111 H47        -0.6790    2.6520    2.7270 h1        1 MOL      0.044645
    112 H48         2.2180    1.6280    2.9400 hc        1 MOL      0.070805
    113 H49         1.5210    0.5400    5.0090 hc        1 MOL      0.033866
    114 H50         0.9370   -0.2420    3.5630 hc        1 MOL      0.033866
    115 H51         0.9110    3.0800    5.2910 hc        1 MOL      0.063065
    116 H52         2.5490    2.6260    5.0240 hc        1 MOL      0.063065
    117 H53         1.8930    3.9410    4.0650 hc        1 MOL      0.063065
    118 H54        -0.9870   -0.3410    4.7860 hc        1 MOL      0.121969
    119 H55        -0.7750    1.1910    5.5710 hc        1 MOL      0.121969
    120 H56        -1.3720    1.0250    3.8330 hc        1 MOL      0.121969
    121 N11        -1.3330    0.8030    1.2820 n         1 MOL     -0.491572
    122 C40        -1.7030   -0.3750    0.4480 c3        1 MOL     -0.206009
    123 C41        -3.1860   -0.3930    0.0600 c         1 MOL      0.680330
    124 O16        -3.6220   -1.1900   -0.7350 o         1 MOL     -0.555263
    125 C42        -1.5160   -1.7120    1.2390 c3        1 MOL      0.369656
    126 O17        -1.9200   -1.5720    2.5910 oh        1 MOL     -0.624845
    127 H57        -2.0200    1.3420    1.7880 hn        1 MOL      0.309477
    128 H58        -1.1130   -0.3410   -0.4680 h1        1 MOL      0.171455
    129 H59        -0.4690   -1.9870    1.2200 h1        1 MOL     -0.058824
    130 H60        -2.1490   -2.4150    0.6820 h1        1 MOL     -0.058824
    131 H61        -1.5940   -2.2600    3.1790 ho        1 MOL      0.398268
    132 N12        -4.0280    0.5330    0.5470 n         1 MOL     -0.491169
    133 C43        -5.4290    0.6440    0.2340 c3        1 MOL      0.040359
    134 C44        -5.5400    0.9230   -1.3000 c         1 MOL      0.680160
    135 O18        -4.6120    1.5960   -1.8010 o         1 MOL     -0.590018
    136 C45        -6.1360    1.6520    1.0680 c3        1 MOL     -0.076962
    137 H62        -3.7310    1.2880    1.1420 hn        1 MOL      0.288128
    138 H63        -5.8530   -0.3650    0.3110 h1        1 MOL      0.079390
    139 H64        -7.1490    1.8240    0.7220 hc        1 MOL      0.038313
    140 H65        -6.1030    1.3690    2.1280 hc        1 MOL      0.038313
    141 H66        -5.5440    2.5660    1.0570 hc        1 MOL      0.038313
    142 N13        -6.6560    0.6580   -2.1060 n         1 MOL     -0.679489
    143 C46        -7.8640   -0.0490   -1.4850 c3        1 MOL      0.335745
    144 C47        -9.1570    0.3330   -2.2130 c         1 MOL      0.386995
    145 O19        -9.2630    0.5340   -3.4240 o         1 MOL     -0.494873
    146 C48        -7.6220   -1.5350   -1.5210 c3        1 MOL     -0.384368
    147 H67        -6.5620    0.8770   -3.0860 hn        1 MOL      0.352421
    148 H68        -7.8870    0.3560   -0.4820 h1        1 MOL     -0.050801
    149 H69        -7.9060   -1.8540   -2.5290 hc        1 MOL      0.110141
    150 H70        -6.5950   -1.8010   -1.2840 hc        1 MOL      0.110141
    151 H71        -8.2500   -2.1350   -0.8620 hc        1 MOL      0.110141
    152 N14       -10.2580    0.4650   -1.4000 n         1 MOL     -0.140910
    153 C49       -10.3410    0.4360    0.0670 c3        1 MOL     -0.378701
    154 C50        -9.9980    1.7370    0.7330 c         1 MOL      0.658799
    155 O20        -9.7870    1.7380    1.9560 o         1 MOL     -0.561833
    156 C51       -11.6780   -0.1470    0.6730 c3        1 MOL      0.011635
    157 C52       -13.0070    0.5510    0.3170 c3        1 MOL     -0.161361
    158 C53       -13.4500    0.1570   -1.0880 c         1 MOL      0.706909
    159 O21       -14.0200   -0.9370   -1.2860 o         1 MOL     -0.657376
    160 O22       -13.3830    1.0400   -2.0120 o         1 MOL     -0.657376
    161 H72       -11.1060    0.6830   -1.9090 hn        1 MOL      0.169762
    162 H73        -9.6230   -0.2580    0.4910 h1        1 MOL      0.141550
    163 H74       -11.4840   -0.0400    1.7390 hc        1 MOL      0.041159
    164 H75       -11.7080   -1.2110    0.4360 hc        1 MOL      0.041159
    165 H76       -12.9250    1.6360    0.3130 hc        1 MOL      0.034471
    166 H77       -13.7000    0.1600    1.0610 hc        1 MOL      0.034471
    167 N15        -9.8140    2.8370   -0.0300 n         1 MOL     -0.338293
    168 C54        -9.2580    4.0810    0.5380 c3        1 MOL     -0.103675
    169 H78        -9.8440    4.9310    0.1910 h1        1 MOL      0.070204
    170 H79        -9.2960    4.0330    1.6260 h1        1 MOL      0.070204
    171 H80        -8.2230    4.1970    0.2140 h1        1 MOL      0.070204
    172 H81        -9.8680    2.7820   -1.0310 hn        1 MOL      0.262880
    173 Ca1         2.6690    0.2300   -0.9580 Ca        1 MOL      1.733581
    174 O23         0.3380    1.2950   -1.7370 oh        1 MOL     -0.876039
    175 H82        -0.0520    0.9210   -2.5270 ho        1 MOL      0.430951
    176 H83         0.0520    2.2030   -1.7290 ho        1 MOL      0.430951
    177 O24         2.9620    1.7180   -3.1170 oh        1 MOL     -0.876039
    178 H84         2.9810    1.6220   -4.0770 ho        1 MOL      0.430951
    179 H85         2.8290    2.6580   -2.9770 ho        1 MOL      0.430951
@<TRIPOS>BOND
     1    1    2 1   
     2    1    4 1   
     3    1    5 1   
     4    1    6 1   
     5    2    3 2   
     6    2    7 1   
     7    7    8 1   
     8    7   15 1   
     9    8    9 1   
    10    8   11 1   
    11    8   16 1   
    12    9   10 2   
    13    9   19 1   
    14   11   12 1   
    15   11   17 1   
    16   11   18 1   
    17   12   13 1   
    18   12   14 1   
    19   19   20 1   
    20   19   28 1   
    21   20   21 1   
    22   20   23 1   
    23   20   29 1   
    24   21   22 2   
    25   21   41 1   
    26   23   24 1   
    27   23   30 1   
    28   23   31 1   
    29   24   25 1   
    30   24   32 1   
    31   24   33 1   
    32   25   26 1   
    33   25   34 1   
    34   25   35 1   
    35   26   27 1   
    36   26   36 1   
    37   26   37 1   
    38   27   38 1   
    39   27   39 1   
    40   27   40 1   
    41   41   42 1   
    42   41   49 1   
    43   42   43 1   
    44   42   45 1   
    45   42   50 1   
    46   43   44 2   
    47   43   53 1   
    48   45   46 1   
    49   45   51 1   
    50   45   52 1   
    51   46   47 1   
    52   46   48 1   
    53   53   54 1   
    54   53   57 1   
    55   54   55 1   
    56   54   58 1   
    57   54   59 1   
    58   55   56 2   
    59   55   60 1   
    60   60   61 1   
    61   60   68 1   
    62   61   62 1   
    63   61   64 1   
    64   61   69 1   
    65   62   63 2   
    66   62   74 1   
    67   64   65 1   
    68   64   70 1   
    69   64   71 1   
    70   65   66 1   
    71   65   67 2   
    72   66   72 1   
    73   66   73 1   
    74   74   75 1   
    75   74   78 1   
    76   75   76 1   
    77   75   79 1   
    78   75   80 1   
    79   76   77 2   
    80   76   81 1   
    81   81   82 1   
    82   81   93 1   
    83   82   83 1   
    84   82   85 1   
    85   82   94 1   
    86   83   84 2   
    87   83  102 1   
    88   85   86 1   
    89   85   95 1   
    90   85   96 1   
    91   86   87 ar  
    92   86   88 ar  
    93   87   89 ar  
    94   87   97 1   
    95   88   90 ar  
    96   88   98 1   
    97   89   91 ar  
    98   89   99 1   
    99   90   91 ar  
   100   90  100 1   
   101   91   92 1   
   102   92  101 1   
   103  102  103 1   
   104  102  110 1   
   105  103  104 1   
   106  103  106 1   
   107  103  111 1   
   108  104  105 2   
   109  104  121 1   
   110  106  107 1   
   111  106  108 1   
   112  106  112 1   
   113  107  109 1   
   114  107  113 1   
   115  107  114 1   
   116  108  115 1   
   117  108  116 1   
   118  108  117 1   
   119  109  118 1   
   120  109  119 1   
   121  109  120 1   
   122  121  122 1   
   123  121  127 1   
   124  122  123 1   
   125  122  125 1   
   126  122  128 1   
   127  123  124 2   
   128  123  132 1   
   129  125  126 1   
   130  125  129 1   
   131  125  130 1   
   132  126  131 1   
   133  132  133 1   
   134  132  137 1   
   135  133  134 1   
   136  133  136 1   
   137  133  138 1   
   138  134  135 2   
   139  134  142 1   
   140  136  139 1   
   141  136  140 1   
   142  136  141 1   
   143  142  143 1   
   144  142  147 1   
   145  143  144 1   
   146  143  146 1   
   147  143  148 1   
   148  144  145 2   
   149  144  152 1   
   150  146  149 1   
   151  146  150 1   
   152  146  151 1   
   153  152  153 1   
   154  152  161 1   
   155  153  154 1   
   156  153  156 1   
   157  153  162 1   
   158  154  155 2   
   159  154  167 1   
   160  156  157 1   
   161  156  163 1   
   162  156  164 1   
   163  157  158 1   
   164  157  165 1   
   165  157  166 1   
   166  158  159 1   
   167  158  160 1   
   168  167  168 1   
   169  167  172 1   
   170  168  169 1   
   171  168  170 1   
   172  168  171 1   
   173  174  175 1   
   174  174  176 1   
   175  177  178 1   
   176  177  179 1   
@<TRIPOS>SUBSTRUCTURE
     1 MOL         1 TEMP              0 ****  ****    0 ROOT
