@<TRIPOS>MOLECULE
MOL
  192   187     1     0     0
SMALL
resp


@<TRIPOS>ATOM
      1 C1         -4.1390    1.7640   -2.7980 c3        1 MOL     -0.308623
      2 C2         -3.1660    2.3950   -1.7410 c         1 MOL      0.635166
      3 O1         -2.3490    1.7010   -1.1570 o         1 MOL     -0.505021
      4 H1         -3.7160    0.8310   -3.1690 hc        1 MOL      0.071577
      5 H2         -5.1030    1.5640   -2.3320 hc        1 MOL      0.071577
      6 H3         -4.2730    2.4570   -3.6290 hc        1 MOL      0.071577
      7 N1         -3.4170    3.6510   -1.3640 n         1 MOL     -0.526649
      8 C3         -2.9400    4.4120   -0.1970 c3        1 MOL     -0.049342
      9 C4         -1.3630    4.8230   -0.2820 c         1 MOL      0.750748
     10 O2         -0.6640    4.9340    0.6990 o         1 MOL     -0.581242
     11 C5         -3.5100    3.9010    1.1320 c3        1 MOL     -0.148551
     12 C6         -4.9900    3.4980    1.1780 c         1 MOL      0.887237
     13 O3         -5.7840    3.6330    0.2630 o         1 MOL     -0.770812
     14 O4         -5.4530    3.1680    2.2770 o         1 MOL     -0.770812
     15 H4         -4.1940    4.0290   -1.8900 hn        1 MOL      0.249570
     16 H5         -3.4460    5.3750   -0.1890 h1        1 MOL      0.069144
     17 H6         -3.2660    4.7610    1.7590 hc        1 MOL      0.047761
     18 H7         -2.8880    3.0620    1.4630 hc        1 MOL      0.047761
     19 N2         -0.8930    5.0930   -1.4790 n         1 MOL     -0.674014
     20 C7          0.5620    5.2760   -1.8680 c3        1 MOL      0.255053
     21 C8          1.0610    6.7120   -1.6660 c         1 MOL      0.495544
     22 O5          0.2850    7.5950   -1.8310 o         1 MOL     -0.597324
     23 C9          0.9060    4.7120   -3.3080 c3        1 MOL     -0.000056
     24 C10        -0.0110    5.2950   -4.4030 c3        1 MOL      0.210649
     25 C11         0.7780    3.1750   -3.2350 c3        1 MOL     -0.224359
     26 C12         0.1870    6.8230   -4.8300 c3        1 MOL     -0.461717
     27 H8         -1.5760    5.1100   -2.2320 hn        1 MOL      0.315393
     28 H9          1.1570    4.7030   -1.1440 h1        1 MOL      0.003614
     29 H10         1.9510    4.8690   -3.5690 hc        1 MOL      0.051902
     30 H11        -1.0180    5.1210   -4.0140 hc        1 MOL     -0.060745
     31 H12         0.0760    4.6350   -5.2590 hc        1 MOL     -0.060745
     32 H13         1.4240    2.6950   -3.9640 hc        1 MOL      0.052304
     33 H14         0.9270    2.7530   -2.2470 hc        1 MOL      0.052304
     34 H15        -0.2390    2.8760   -3.5040 hc        1 MOL      0.052304
     35 H16         1.2750    6.9830   -4.7850 hc        1 MOL      0.115965
     36 H17        -0.3780    6.9490   -5.7600 hc        1 MOL      0.115965
     37 H18        -0.3890    7.3710   -4.0920 hc        1 MOL      0.115965
     38 N3          2.3410    6.9670   -1.4220 n         1 MOL     -0.392032
     39 C13         3.4550    6.0850   -1.6130 c3        1 MOL      0.206144
     40 C14         3.5700    4.9210   -0.5520 c         1 MOL      0.430044
     41 O6          4.1740    3.8800   -0.8280 o         1 MOL     -0.585675
     42 C15         4.7290    6.9310   -1.6440 c3        1 MOL     -0.319231
     43 C16         5.0620    8.0490   -0.5420 c         1 MOL      0.715768
     44 O7          6.1510    8.6910   -0.5350 o         1 MOL     -0.708907
     45 O8          4.1860    8.2110    0.3640 o         1 MOL     -0.708907
     46 H19         2.5670    7.9570   -1.3760 hn        1 MOL      0.263598
     47 H20         3.4530    5.6380   -2.6090 h1        1 MOL     -0.006813
     48 H21         4.7450    7.4210   -2.6140 hc        1 MOL      0.050096
     49 H22         5.5190    6.1850   -1.6640 hc        1 MOL      0.050096
     50 N4          2.9200    5.0100    0.6330 n         1 MOL     -0.046978
     51 C17         2.9190    4.0150    1.6940 c3        1 MOL     -0.241329
     52 C18         4.2950    3.5990    2.1940 c         1 MOL      0.558090
     53 O9          5.1270    4.4130    2.5200 o         1 MOL     -0.531090
     54 H23         2.6130    5.9430    0.8710 hn        1 MOL      0.172504
     55 H24         2.3200    3.1500    1.4060 h1        1 MOL      0.110602
     56 H25         2.2430    4.3780    2.4590 h1        1 MOL      0.110602
     57 N5          4.5740    2.2670    2.3690 n         1 MOL     -0.424121
     58 C19         5.7290    1.7410    3.1440 c3        1 MOL      0.171196
     59 C20         6.8980    1.2640    2.2550 c         1 MOL      0.298687
     60 O10         7.9960    1.0150    2.7220 o         1 MOL     -0.510155
     61 C21         5.2500    0.4680    3.8630 c3        1 MOL     -0.381609
     62 C22         4.4240   -0.5780    3.1050 c         1 MOL      0.763062
     63 O11         3.7800   -1.4700    3.7410 o         1 MOL     -0.693050
     64 O12         4.3010   -0.5020    1.8490 o         1 MOL     -0.693050
     65 H26         3.8430    1.6100    2.1240 hn        1 MOL      0.255353
     66 H27         6.0570    2.5180    3.8360 h1        1 MOL      0.076608
     67 H28         4.6560    0.9090    4.6600 hc        1 MOL      0.076811
     68 H29         6.1020   -0.0130    4.3280 hc        1 MOL      0.076811
     69 N6          6.6380    1.2400    0.9370 n         1 MOL     -0.089441
     70 C23         7.4430    0.6650   -0.1190 c3        1 MOL     -0.240509
     71 C24         7.6280   -0.8850   -0.0520 c         1 MOL      0.410828
     72 O13         8.4420   -1.4460   -0.8240 o         1 MOL     -0.559470
     73 H30         5.7610    1.6640    0.6520 hn        1 MOL      0.224068
     74 H31         8.4610    1.0600   -0.2260 h1        1 MOL      0.110649
     75 H32         6.9350    0.8470   -1.0620 h1        1 MOL      0.110649
     76 N7          6.8030   -1.5160    0.7840 n         1 MOL      0.141832
     77 C25         6.6830   -2.9540    1.0920 c3        1 MOL     -0.058144
     78 C26         6.4860   -3.8210   -0.1220 c         1 MOL      0.588105
     79 O14         7.0120   -4.9300   -0.2300 o         1 MOL     -0.537766
     80 C27         7.8890   -3.4730    1.8540 c3        1 MOL      0.102651
     81 C28         8.2990   -2.6520    3.0810 c3        1 MOL     -0.119221
     82 C29         9.6080   -3.0770    3.6740 c         1 MOL      0.647161
     83 N8         10.1300   -2.4580    4.7610 n         1 MOL     -0.847522
     84 O15        10.3020   -3.9800    3.1710 o         1 MOL     -0.566238
     85 H33         6.1110   -0.9250    1.2160 hn        1 MOL     -0.025811
     86 H34         5.7810   -3.1430    1.6740 h1        1 MOL      0.077244
     87 H35         8.7080   -3.4210    1.1380 hc        1 MOL     -0.005639
     88 H36         7.8240   -4.5370    2.0610 hc        1 MOL     -0.005639
     89 H37         7.4940   -2.8190    3.7920 hc        1 MOL      0.038116
     90 H38         8.3530   -1.5730    2.9250 hc        1 MOL      0.038116
     91 H39         9.8120   -1.5590    5.1080 hn        1 MOL      0.356185
     92 H40        11.0570   -2.7160    5.0720 hn        1 MOL      0.356185
     93 N9          5.7550   -3.3090   -1.1100 n         1 MOL     -0.474218
     94 C30         5.3430   -4.0560   -2.3620 c3        1 MOL     -0.193456
     95 C31         3.8260   -4.0340   -2.6790 c         1 MOL      0.618624
     96 O16         3.2950   -4.8320   -3.4170 o         1 MOL     -0.578878
     97 C32         6.2230   -3.6080   -3.5840 c3        1 MOL      0.252809
     98 C33         6.0600   -2.0390   -3.9240 c3        1 MOL     -0.289130
     99 C34         7.7240   -3.9330   -3.5760 c3        1 MOL     -0.289130
    100 H41         5.4210   -2.3780   -0.9090 hn        1 MOL      0.228807
    101 H42         5.5500   -5.0980   -2.1370 h1        1 MOL      0.147984
    102 H43         5.8350   -4.1000   -4.4820 hc        1 MOL     -0.018148
    103 H44         6.6010   -1.8210   -4.8380 hc        1 MOL      0.068675
    104 H45         4.9890   -1.8330   -3.9940 hc        1 MOL      0.068675
    105 H46         6.3830   -1.3440   -3.1480 hc        1 MOL      0.068675
    106 H47         8.0450   -4.1040   -4.6070 hc        1 MOL      0.068675
    107 H48         8.2630   -3.1190   -3.0850 hc        1 MOL      0.068675
    108 H49         7.9450   -4.8630   -3.0560 hc        1 MOL      0.068675
    109 N10         3.0730   -3.0860   -2.1130 n         1 MOL     -0.406672
    110 C35         1.6300   -2.8010   -2.3420 c3        1 MOL      0.204014
    111 C36         0.8300   -3.2890   -1.1090 c         1 MOL      0.564698
    112 O17         1.3800   -3.8020   -0.1620 o         1 MOL     -0.547729
    113 C37         1.5260   -1.2470   -2.6460 c3        1 MOL     -0.353101
    114 C38         0.4590   -0.8860   -3.6170 c         1 MOL      0.656885
    115 N11         0.7520   -0.6050   -4.8370 n         1 MOL     -0.708685
    116 O18        -0.7160   -1.1150   -3.3560 o         1 MOL     -0.540187
    117 H50         3.5490   -2.4580   -1.4830 hn        1 MOL      0.267683
    118 H51         1.3470   -3.3780   -3.2220 h1        1 MOL      0.049859
    119 H52         2.4850   -0.8880   -3.0090 hc        1 MOL      0.108014
    120 H53         1.2420   -0.7430   -1.7140 hc        1 MOL      0.108014
    121 H54         1.6860   -0.4670   -5.1940 hn        1 MOL      0.336091
    122 H55         0.0350   -0.5920   -5.5440 hn        1 MOL      0.336091
    123 N12        -0.4350   -2.9630   -1.0960 n         1 MOL     -0.527259
    124 C39        -1.3210   -3.1540    0.0080 c3        1 MOL      0.290237
    125 C40        -2.6230   -3.8120   -0.4860 c         1 MOL      0.467803
    126 O19        -3.1570   -3.4360   -1.5410 o         1 MOL     -0.530701
    127 C41        -1.4240   -1.8280    0.7420 c3        1 MOL     -0.112687
    128 C42        -2.0930   -1.9380    2.0390 ca        1 MOL      0.015465
    129 C43        -3.3490   -1.3810    2.1990 ca        1 MOL     -0.059801
    130 C44        -1.4820   -2.6080    3.0790 ca        1 MOL     -0.059801
    131 C45        -3.9960   -1.3260    3.4850 ca        1 MOL     -0.402673
    132 C46        -2.2340   -2.8360    4.2680 ca        1 MOL     -0.402673
    133 C47        -3.4430   -2.1610    4.4940 ca        1 MOL      0.464398
    134 O20        -3.9930   -2.3860    5.7040 oh        1 MOL     -0.569111
    135 H56        -0.6990   -2.2810   -1.7890 hn        1 MOL      0.210917
    136 H57        -0.9790   -3.9190    0.7070 h1        1 MOL      0.003833
    137 H58        -2.0310   -1.0940    0.2170 hc        1 MOL      0.081160
    138 H59        -0.4410   -1.4110    0.9910 hc        1 MOL      0.081160
    139 H60        -3.8450   -0.9190    1.3610 ha        1 MOL      0.140426
    140 H61        -0.4990   -2.9970    2.8730 ha        1 MOL      0.140426
    141 H62        -4.8940   -0.7430    3.6480 ha        1 MOL      0.189275
    142 H63        -1.8240   -3.4770    5.0370 ha        1 MOL      0.189275
    143 H64        -4.9390   -2.2350    5.6890 ho        1 MOL      0.389058
    144 N13        -3.0850   -4.7650    0.2890 n         1 MOL     -0.574778
    145 C48        -4.3780   -5.5110   -0.0110 c3        1 MOL      0.318487
    146 C49        -5.4530   -5.0460    1.0500 c         1 MOL      0.383183
    147 O21        -5.5380   -5.7680    2.0190 o         1 MOL     -0.548917
    148 C50        -4.0040   -7.0290    0.0170 c3        1 MOL     -0.179811
    149 C51        -2.8960   -7.4390   -0.9830 c3        1 MOL     -0.269240
    150 C52        -2.8070   -8.9800   -1.0180 c         1 MOL      0.678175
    151 O22        -2.1250   -9.5930   -0.1120 o         1 MOL     -0.667675
    152 O23        -3.3130   -9.6900   -1.9490 o         1 MOL     -0.667675
    153 H65        -2.4230   -5.0610    1.0040 hn        1 MOL      0.332268
    154 H66        -4.6510   -5.2230   -1.0260 h1        1 MOL      0.081469
    155 H67        -4.9590   -7.4980   -0.2310 hc        1 MOL      0.078891
    156 H68        -3.5950   -7.3380    0.9780 hc        1 MOL      0.078891
    157 H69        -1.9440   -7.0640   -0.6110 hc        1 MOL      0.077079
    158 H70        -3.0480   -6.9970   -1.9620 hc        1 MOL      0.077079
    159 N14        -6.3250   -4.1010    0.8210 n         1 MOL     -0.284089
    160 C53        -6.4030   -3.1990   -0.3280 c3        1 MOL     -0.318401
    161 C54        -6.7260   -3.7640   -1.7480 c         1 MOL      0.623207
    162 O24        -7.6710   -4.6310   -1.7790 o         1 MOL     -0.552604
    163 C55        -7.2170   -2.0280    0.1820 c3        1 MOL      0.136917
    164 C56        -7.0500   -0.7200   -0.6460 c3        1 MOL     -0.158373
    165 C57        -7.6280    0.4640    0.1400 c         1 MOL      0.825945
    166 O25        -8.4020    1.2460   -0.4220 o         1 MOL     -0.812722
    167 O26        -7.3190    0.6640    1.3490 o         1 MOL     -0.812722
    168 H71        -6.8600   -3.8810    1.6560 hn        1 MOL      0.255567
    169 H72        -5.4020   -2.7660   -0.3220 h1        1 MOL      0.089417
    170 H73        -7.1150   -1.8870    1.2520 hc        1 MOL      0.009268
    171 H74        -8.2470   -2.2850   -0.0730 hc        1 MOL      0.009268
    172 H75        -7.5740   -0.8210   -1.5950 hc        1 MOL      0.027102
    173 H76        -5.9930   -0.5620   -0.8620 hc        1 MOL      0.027102
    174 N15        -5.9840   -3.5280   -2.8220 n         1 MOL     -0.407940
    175 C58        -6.1490   -4.2490   -4.1410 c3        1 MOL     -0.090799
    176 H77        -5.5600   -5.1660   -4.1290 h1        1 MOL      0.073296
    177 H78        -7.2000   -4.4950   -4.2910 h1        1 MOL      0.073296
    178 H79        -5.8050   -3.6070   -4.9520 h1        1 MOL      0.073296
    179 H80        -5.1920   -2.9030   -2.8040 hn        1 MOL      0.319380
    180 Ca1        -8.0180    3.2040    1.3600 Ca        1 MOL      1.667763
    181 O27        -9.9040    5.1510    1.8100 oh        1 MOL     -0.803391
    182 H81       -10.6800    5.3020    1.2780 ho        1 MOL      0.382921
    183 H82        -9.8790    5.8790    2.4270 ho        1 MOL      0.382921
    184 O28       -10.4660    1.9870    1.5270 oh        1 MOL     -0.803391
    185 H83       -10.3540    1.1650    1.0470 ho        1 MOL      0.382921
    186 H84       -11.4000    2.0440    1.6980 ho        1 MOL      0.382921
    187 O29        -6.8980    5.8970    1.9570 oh        1 MOL     -0.803391
    188 H85        -7.5400    6.5160    2.3130 ho        1 MOL      0.382921
    189 H86        -6.1900    6.4560    1.6260 ho        1 MOL      0.382921
    190 O30        -8.3470    3.4200    3.9900 oh        1 MOL     -0.803391
    191 H87        -9.1090    3.2220    4.5360 ho        1 MOL      0.382921
    192 H88        -7.6000    3.0950    4.4980 ho        1 MOL      0.382921
@<TRIPOS>BOND
     1    1    2 1   
     2    1    4 1   
     3    1    5 1   
     4    1    6 1   
     5    2    3 2   
     6    2    7 1   
     7    7    8 1   
     8    7   15 1   
     9    8    9 1   
    10    8   11 1   
    11    8   16 1   
    12    9   10 2   
    13    9   19 1   
    14   11   12 1   
    15   11   17 1   
    16   11   18 1   
    17   12   13 1   
    18   12   14 1   
    19   19   20 1   
    20   19   27 1   
    21   20   21 1   
    22   20   23 1   
    23   20   28 1   
    24   21   22 2   
    25   21   38 1   
    26   23   24 1   
    27   23   25 1   
    28   23   29 1   
    29   24   26 1   
    30   24   30 1   
    31   24   31 1   
    32   25   32 1   
    33   25   33 1   
    34   25   34 1   
    35   26   35 1   
    36   26   36 1   
    37   26   37 1   
    38   38   39 1   
    39   38   46 1   
    40   39   40 1   
    41   39   42 1   
    42   39   47 1   
    43   40   41 2   
    44   40   50 1   
    45   42   43 1   
    46   42   48 1   
    47   42   49 1   
    48   43   44 1   
    49   43   45 1   
    50   50   51 1   
    51   50   54 1   
    52   51   52 1   
    53   51   55 1   
    54   51   56 1   
    55   52   53 2   
    56   52   57 1   
    57   57   58 1   
    58   57   65 1   
    59   58   59 1   
    60   58   61 1   
    61   58   66 1   
    62   59   60 2   
    63   59   69 1   
    64   61   62 1   
    65   61   67 1   
    66   61   68 1   
    67   62   63 1   
    68   62   64 1   
    69   69   70 1   
    70   69   73 1   
    71   70   71 1   
    72   70   74 1   
    73   70   75 1   
    74   71   72 2   
    75   71   76 1   
    76   76   77 1   
    77   76   85 1   
    78   77   78 1   
    79   77   80 1   
    80   77   86 1   
    81   78   79 2   
    82   78   93 1   
    83   80   81 1   
    84   80   87 1   
    85   80   88 1   
    86   81   82 1   
    87   81   89 1   
    88   81   90 1   
    89   82   83 1   
    90   82   84 2   
    91   83   91 1   
    92   83   92 1   
    93   93   94 1   
    94   93  100 1   
    95   94   95 1   
    96   94   97 1   
    97   94  101 1   
    98   95   96 2   
    99   95  109 1   
   100   97   98 1   
   101   97   99 1   
   102   97  102 1   
   103   98  103 1   
   104   98  104 1   
   105   98  105 1   
   106   99  106 1   
   107   99  107 1   
   108   99  108 1   
   109  109  110 1   
   110  109  117 1   
   111  110  111 1   
   112  110  113 1   
   113  110  118 1   
   114  111  112 2   
   115  111  123 1   
   116  113  114 1   
   117  113  119 1   
   118  113  120 1   
   119  114  115 1   
   120  114  116 2   
   121  115  121 1   
   122  115  122 1   
   123  123  124 1   
   124  123  135 1   
   125  124  125 1   
   126  124  127 1   
   127  124  136 1   
   128  125  126 2   
   129  125  144 1   
   130  127  128 1   
   131  127  137 1   
   132  127  138 1   
   133  128  129 ar  
   134  128  130 ar  
   135  129  131 ar  
   136  129  139 1   
   137  130  132 ar  
   138  130  140 1   
   139  131  133 ar  
   140  131  141 1   
   141  132  133 ar  
   142  132  142 1   
   143  133  134 1   
   144  134  143 1   
   145  144  145 1   
   146  144  153 1   
   147  145  146 1   
   148  145  148 1   
   149  145  154 1   
   150  146  147 2   
   151  146  159 1   
   152  148  149 1   
   153  148  155 1   
   154  148  156 1   
   155  149  150 1   
   156  149  157 1   
   157  149  158 1   
   158  150  151 1   
   159  150  152 1   
   160  159  160 1   
   161  159  168 1   
   162  160  161 1   
   163  160  163 1   
   164  160  169 1   
   165  161  162 2   
   166  161  174 1   
   167  163  164 1   
   168  163  170 1   
   169  163  171 1   
   170  164  165 1   
   171  164  172 1   
   172  164  173 1   
   173  165  166 1   
   174  165  167 1   
   175  174  175 1   
   176  174  179 1   
   177  175  176 1   
   178  175  177 1   
   179  175  178 1   
   180  181  182 1   
   181  181  183 1   
   182  184  185 1   
   183  184  186 1   
   184  187  188 1   
   185  187  189 1   
   186  190  191 1   
   187  190  192 1   
@<TRIPOS>SUBSTRUCTURE
     1 MOL         1 TEMP              0 ****  ****    0 ROOT
