@<TRIPOS>MOLECULE
MOL
  186   183     1     0     0
SMALL
resp


@<TRIPOS>ATOM
      1 C1        -11.5390    3.3770    4.5760 c3        1 MOL     -0.540807
      2 C2        -11.7410    2.7970    3.1500 c         1 MOL      0.566755
      3 O1        -12.5830    1.8430    2.8980 o         1 MOL     -0.598614
      4 H1        -11.3270    4.4430    4.5070 hc        1 MOL      0.145604
      5 H2        -12.4440    3.2240    5.1620 hc        1 MOL      0.145604
      6 H3        -10.7020    2.8710    5.0580 hc        1 MOL      0.145604
      7 N1        -11.1270    3.3810    2.1850 n         1 MOL      0.124187
      8 C3        -11.0170    2.8590    0.7810 c3        1 MOL     -0.981667
      9 C4         -9.7890    2.0090    0.5660 c         1 MOL      0.790448
     10 O2         -8.6800    2.3720    0.9990 o         1 MOL     -0.728805
     11 C5        -11.3200    4.0440   -0.1400 c3        1 MOL      0.424041
     12 C6        -10.6100    5.3450    0.2720 c         1 MOL      0.447072
     13 O3         -9.5400    5.3190    0.9440 o         1 MOL     -0.636049
     14 O4        -11.1530    6.4080   -0.0480 o         1 MOL     -0.636049
     15 H4        -10.6130    4.2190    2.4250 hn        1 MOL      0.098039
     16 H5        -11.8070    2.1200    0.6030 h1        1 MOL      0.237504
     17 H6        -12.3900    4.2140   -0.2130 hc        1 MOL      0.010887
     18 H7        -11.1300    3.8080   -1.1880 hc        1 MOL      0.010887
     19 N2         -9.8990    0.8950   -0.2160 n         1 MOL     -0.181158
     20 C7         -8.9770   -0.2750   -0.2900 c3        1 MOL     -0.283262
     21 C8         -7.7770   -0.0430   -1.2000 c         1 MOL      0.710916
     22 O5         -7.6360   -0.6850   -2.2300 o         1 MOL     -0.585874
     23 C9         -9.8720   -1.4120   -0.6280 c3        1 MOL      0.149981
     24 C10        -9.1990   -2.7670   -0.4430 c3        1 MOL     -0.042031
     25 C11        -9.9300   -3.9730   -1.1040 c3        1 MOL     -0.172711
     26 C12       -10.1300   -3.7930   -2.6120 c3        1 MOL      0.049596
     27 N3         -8.9080   -3.3440   -3.3320 n4        1 MOL     -0.094722
     28 H8        -10.7760    0.8420   -0.7050 hn        1 MOL      0.212408
     29 H9         -8.6050   -0.5390    0.6970 h1        1 MOL      0.098535
     30 H10       -10.2380   -1.3900   -1.6560 hc        1 MOL     -0.010339
     31 H11       -10.7710   -1.4690   -0.0120 hc        1 MOL     -0.010339
     32 H12        -9.0770   -2.9740    0.6260 hc        1 MOL      0.041025
     33 H13        -8.2310   -2.6560   -0.9240 hc        1 MOL      0.041025
     34 H14       -10.8890   -4.0070   -0.5800 hc        1 MOL      0.091741
     35 H15        -9.4730   -4.9460   -0.9190 hc        1 MOL      0.091741
     36 H16       -10.9160   -3.0750   -2.8570 hx        1 MOL      0.048451
     37 H17       -10.3990   -4.7280   -3.1100 hx        1 MOL      0.048451
     38 H18        -9.1540   -3.0510   -4.2580 hn        1 MOL      0.241189
     39 H19        -8.4050   -2.5870   -2.8820 hn        1 MOL      0.241189
     40 H20        -8.2240   -4.0860   -3.4030 hn        1 MOL      0.241189
     41 N4         -7.0090    0.9460   -0.8270 n         1 MOL     -0.301658
     42 C13        -5.8480    1.5140   -1.5060 c3        1 MOL     -0.545412
     43 C14        -4.8330    2.1210   -0.5080 c         1 MOL      0.731382
     44 O6         -5.2100    2.8120    0.3660 o         1 MOL     -0.694338
     45 C15        -6.3090    2.4900   -2.6480 c3        1 MOL     -0.032486
     46 C16        -7.3930    3.5160   -2.3470 c         1 MOL      0.526461
     47 O7         -8.2800    3.8200   -3.2230 o         1 MOL     -0.632955
     48 O8         -7.4120    4.0710   -1.2310 o         1 MOL     -0.632955
     49 H21        -7.2460    1.3700    0.0490 hn        1 MOL      0.347479
     50 H22        -5.3600    0.7070   -2.0590 h1        1 MOL      0.229086
     51 H23        -6.6390    1.8920   -3.4860 hc        1 MOL      0.077735
     52 H24        -5.3790    2.9130   -3.0190 hc        1 MOL      0.077735
     53 N5         -3.5350    1.8070   -0.6100 n         1 MOL     -0.472754
     54 C17        -2.8740    0.6760   -1.3020 c3        1 MOL     -0.023875
     55 C18        -3.2390   -0.7380   -0.7930 c         1 MOL      0.613132
     56 O9         -3.7650   -0.8030    0.3320 o         1 MOL     -0.538577
     57 H25        -2.9690    2.1280    0.1560 hn        1 MOL      0.300628
     58 H26        -1.7920    0.7680   -1.2840 h1        1 MOL      0.073026
     59 H27        -3.1100    0.6840   -2.3680 h1        1 MOL      0.073026
     60 N6         -3.0800   -1.6730   -1.6330 n         1 MOL     -0.631899
     61 C19        -3.6320   -2.9960   -1.4540 c3        1 MOL      0.566631
     62 C20        -2.5770   -4.1130   -1.3400 c         1 MOL      0.466681
     63 O10        -1.4390   -3.8530   -1.6690 o         1 MOL     -0.533136
     64 C21        -4.6120   -3.1850   -2.6050 c3        1 MOL     -0.571353
     65 C22        -5.6440   -4.3230   -2.3850 c         1 MOL      0.820500
     66 O11        -6.3740   -4.6920   -3.3310 o         1 MOL     -0.724417
     67 O12        -5.8330   -4.8590   -1.2570 o         1 MOL     -0.724417
     68 H28        -2.4690   -1.6100   -2.4420 hn        1 MOL      0.306822
     69 H29        -4.0790   -3.0340   -0.4650 h1        1 MOL     -0.096134
     70 H30        -4.0660   -3.2700   -3.5520 hc        1 MOL      0.123868
     71 H31        -5.1480   -2.2590   -2.7990 hc        1 MOL      0.123868
     72 N7         -3.0510   -5.1960   -0.8050 n         1 MOL     -0.359986
     73 C23        -2.2430   -6.3710   -0.8400 c3        1 MOL     -0.323139
     74 C24        -1.0840   -6.4220    0.1570 c         1 MOL      0.574611
     75 O13        -0.2250   -7.2840    0.1380 o         1 MOL     -0.564555
     76 H32        -4.0450   -5.3610   -0.7010 hn        1 MOL      0.333423
     77 H33        -1.8490   -6.5280   -1.8430 h1        1 MOL      0.167035
     78 H34        -2.8630   -7.1920   -0.4950 h1        1 MOL      0.167035
     79 N8         -0.8600   -5.3640    0.9600 n         1 MOL     -0.298489
     80 C25         0.4170   -5.0110    1.7370 c3        1 MOL     -0.053865
     81 C26         0.7010   -3.5460    1.5090 c         1 MOL      0.647827
     82 O14        -0.2070   -2.7420    1.3680 o         1 MOL     -0.515654
     83 C27         0.2830   -5.3550    3.2130 c3        1 MOL      0.332047
     84 C28        -0.9630   -4.8370    3.8930 c3        1 MOL     -0.178626
     85 O15         0.3640   -6.7070    3.3450 oh        1 MOL     -0.603868
     86 H35        -1.4470   -4.5810    0.7040 hn        1 MOL      0.171484
     87 H36         1.3090   -5.5390    1.3980 h1        1 MOL      0.064767
     88 H37         1.1750   -4.9100    3.6690 h1        1 MOL      0.012847
     89 H38        -0.1640   -7.1040    2.6500 ho        1 MOL      0.380501
     90 H39        -1.8630   -5.0200    3.3120 hc        1 MOL      0.037949
     91 H40        -1.0370   -5.2310    4.9100 hc        1 MOL      0.037949
     92 H41        -0.8180   -3.7540    3.9340 hc        1 MOL      0.037949
     93 N9          1.9550   -3.1100    1.4500 n         1 MOL     -0.488475
     94 C29         2.4560   -1.8490    0.9460 c3        1 MOL     -0.121930
     95 C30         3.8150   -1.8870    0.2540 c         1 MOL      0.618425
     96 O16         4.0350   -1.2970   -0.7990 o         1 MOL     -0.546753
     97 C31         2.3470   -0.8390    2.0760 c3        1 MOL     -0.014668
     98 C32         2.2210    0.6340    1.5910 c3        1 MOL     -0.012922
     99 C33         3.3900   -1.0160    3.1250 c3        1 MOL     -0.453402
    100 C34         0.8700    0.9500    0.8900 c3        1 MOL     -0.233070
    101 H42         2.5780   -3.9040    1.4190 hn        1 MOL      0.245761
    102 H43         1.6640   -1.6480    0.2120 h1        1 MOL      0.132833
    103 H44         1.3670   -1.0440    2.5300 hc        1 MOL      0.121169
    104 H45         3.0080    1.0160    0.9420 hc        1 MOL      0.055986
    105 H46         2.2380    1.2070    2.5170 hc        1 MOL      0.055986
    106 H47         4.4100   -0.7870    2.8130 hc        1 MOL      0.117897
    107 H48         3.1620   -0.3960    3.9850 hc        1 MOL      0.117897
    108 H49         3.3340   -2.0850    3.3490 hc        1 MOL      0.117897
    109 H50         0.7510    2.0210    1.0570 hc        1 MOL      0.060993
    110 H51         0.9040    0.6690   -0.1640 hc        1 MOL      0.060993
    111 H52         0.0790    0.3310    1.3130 hc        1 MOL      0.060993
    112 N10         4.7020   -2.7080    0.7310 n         1 MOL     -0.273994
    113 C35         6.0090   -2.9360    0.0850 c3        1 MOL     -0.335565
    114 C36         7.2320   -2.8240    1.0390 c         1 MOL      0.720072
    115 O17         7.1690   -3.2650    2.1810 o         1 MOL     -0.553360
    116 C37         6.0730   -4.2340   -0.7060 c3        1 MOL      0.456884
    117 C38         4.9810   -4.3870   -1.7110 c3        1 MOL     -0.449310
    118 O18         7.2730   -4.3320   -1.4970 oh        1 MOL     -0.649260
    119 H53         4.4660   -3.3150    1.5070 hn        1 MOL      0.256683
    120 H54         6.1460   -2.1640   -0.6730 h1        1 MOL      0.138162
    121 H55         6.0270   -5.0950   -0.0320 h1        1 MOL      0.023270
    122 H56         7.0420   -4.0570   -2.3860 ho        1 MOL      0.404916
    123 H57         4.0110   -4.6510   -1.2890 hc        1 MOL      0.122448
    124 H58         4.8500   -3.4380   -2.2440 hc        1 MOL      0.122448
    125 H59         5.3630   -5.0500   -2.4810 hc        1 MOL      0.122448
    126 N11         8.3470   -2.2110    0.5950 n         1 MOL     -0.549337
    127 C39         9.5610   -2.0740    1.3880 c3        1 MOL      0.039631
    128 C40         9.8120   -0.5650    1.6850 c         1 MOL      0.720155
    129 O19         9.9280   -0.2110    2.8310 o         1 MOL     -0.565190
    130 C41        10.6990   -2.7470    0.6350 c3        1 MOL      0.177930
    131 C42        12.0820   -2.5730    1.2340 c3        1 MOL     -0.569716
    132 O20        10.7470   -2.4610   -0.7490 oh        1 MOL     -0.627292
    133 H60         8.3870   -1.9360   -0.3770 hn        1 MOL      0.317629
    134 H61         9.5360   -2.5870    2.3490 h1        1 MOL      0.095877
    135 H62        10.5870   -3.8300    0.6450 h1        1 MOL      0.100890
    136 H63        11.6040   -2.7770   -1.0390 ho        1 MOL      0.412624
    137 H64        12.4710   -1.5560    1.2330 hc        1 MOL      0.154583
    138 H65        12.0060   -2.6970    2.3130 hc        1 MOL      0.154583
    139 H66        12.7730   -3.2900    0.7990 hc        1 MOL      0.154583
    140 N12         9.6150    0.2710    0.6680 n         1 MOL     -0.521990
    141 C43         9.7700    1.6780    0.7760 c3        1 MOL     -0.054310
    142 C44         9.1690    2.3800   -0.4300 c         1 MOL      0.511910
    143 O21         9.0510    1.8470   -1.5280 o         1 MOL     -0.545079
    144 C45        11.3040    2.0580    0.8450 c3        1 MOL     -0.094905
    145 C46        12.1650    2.1320   -0.4650 c3        1 MOL     -0.047113
    146 C47        12.4130    0.8040   -1.1130 c3        1 MOL      0.078906
    147 C48        13.1630    0.8820   -2.3860 c3        1 MOL     -0.125273
    148 N13        14.5030    1.3380   -2.1290 n4        1 MOL     -0.270667
    149 H67         9.4140   -0.0730   -0.2660 hn        1 MOL      0.293580
    150 H68         9.2380    2.1320    1.6080 h1        1 MOL      0.126794
    151 H69        11.8250    1.4900    1.6130 hc        1 MOL      0.040438
    152 H70        11.2860    3.0880    1.1850 hc        1 MOL      0.040438
    153 H71        13.1590    2.4640   -0.1960 hc        1 MOL      0.023901
    154 H72        11.6540    2.7490   -1.2030 hc        1 MOL      0.023901
    155 H73        11.4160    0.4540   -1.3680 hc        1 MOL      0.017463
    156 H74        12.8750    0.2020   -0.3180 hc        1 MOL      0.017463
    157 H75        12.6290    1.5370   -3.0730 hx        1 MOL      0.127438
    158 H76        13.1400   -0.1340   -2.7820 hx        1 MOL      0.127438
    159 H77        14.5030    2.3170   -1.8970 hn        1 MOL      0.282015
    160 H78        14.9190    0.8140   -1.3760 hn        1 MOL      0.282015
    161 H79        15.0340    1.2190   -2.9830 hn        1 MOL      0.282015
    162 N14         8.6990    3.5920   -0.2100 n         1 MOL     -0.164898
    163 C49         7.9210    4.4110   -1.1790 c3        1 MOL      0.112765
    164 C50         6.3840    4.2060   -1.1970 c         1 MOL      0.447348
    165 O22         5.8490    3.8580   -2.1990 o         1 MOL     -0.522451
    166 C51         8.2800    5.8630   -0.8700 c3        1 MOL     -0.211056
    167 C52         9.7420    6.2910   -1.3290 c3        1 MOL     -0.280923
    168 C53        10.1020    7.6330   -0.6620 c         1 MOL      0.729128
    169 O23        10.1180    8.6690   -1.3260 o         1 MOL     -0.690758
    170 O24        10.5040    7.5450    0.5470 o         1 MOL     -0.690758
    171 H80         8.8730    3.9540    0.7070 hn        1 MOL      0.205373
    172 H81         8.3190    4.2090   -2.1730 h1        1 MOL      0.053768
    173 H82         8.0990    6.1710    0.1610 hc        1 MOL      0.104109
    174 H83         7.6190    6.5050   -1.4490 hc        1 MOL      0.104109
    175 H84         9.7570    6.3500   -2.4160 hc        1 MOL      0.059241
    176 H85        10.4270    5.4770   -1.1010 hc        1 MOL      0.059241
    177 N15         5.7200    4.3510   -0.0760 n         1 MOL     -0.427287
    178 C54         6.1760    4.4620    1.3490 c3        1 MOL     -0.006562
    179 H86         6.9450    3.7140    1.5430 h1        1 MOL      0.042426
    180 H87         6.5850    5.4570    1.5230 h1        1 MOL      0.042426
    181 H88         5.3300    4.2940    2.0160 h1        1 MOL      0.042426
    182 H89         4.7450    4.1360   -0.2240 hn        1 MOL      0.298652
    183 Ca1        -6.8920    4.6740    1.1480 Ca        1 MOL      1.707499
    184 O25        -6.7860    3.2570    3.2160 oh        1 MOL     -0.861587
    185 H90        -7.1260    3.2090    4.1100 ho        1 MOL      0.446205
    186 H91        -6.2970    2.4440    3.1050 ho        1 MOL      0.446205
@<TRIPOS>BOND
     1    1    2 1   
     2    1    4 1   
     3    1    5 1   
     4    1    6 1   
     5    2    3 2   
     6    2    7 1   
     7    7    8 1   
     8    7   15 1   
     9    8    9 1   
    10    8   11 1   
    11    8   16 1   
    12    9   10 2   
    13    9   19 1   
    14   11   12 1   
    15   11   17 1   
    16   11   18 1   
    17   12   13 1   
    18   12   14 1   
    19   19   20 1   
    20   19   28 1   
    21   20   21 1   
    22   20   23 1   
    23   20   29 1   
    24   21   22 2   
    25   21   41 1   
    26   23   24 1   
    27   23   30 1   
    28   23   31 1   
    29   24   25 1   
    30   24   32 1   
    31   24   33 1   
    32   25   26 1   
    33   25   34 1   
    34   25   35 1   
    35   26   27 1   
    36   26   36 1   
    37   26   37 1   
    38   27   38 1   
    39   27   39 1   
    40   27   40 1   
    41   41   42 1   
    42   41   49 1   
    43   42   43 1   
    44   42   45 1   
    45   42   50 1   
    46   43   44 2   
    47   43   53 1   
    48   45   46 1   
    49   45   51 1   
    50   45   52 1   
    51   46   47 1   
    52   46   48 1   
    53   53   54 1   
    54   53   57 1   
    55   54   55 1   
    56   54   58 1   
    57   54   59 1   
    58   55   56 2   
    59   55   60 1   
    60   60   61 1   
    61   60   68 1   
    62   61   62 1   
    63   61   64 1   
    64   61   69 1   
    65   62   63 2   
    66   62   72 1   
    67   64   65 1   
    68   64   70 1   
    69   64   71 1   
    70   65   66 1   
    71   65   67 1   
    72   72   73 1   
    73   72   76 1   
    74   73   74 1   
    75   73   77 1   
    76   73   78 1   
    77   74   75 2   
    78   74   79 1   
    79   79   80 1   
    80   79   86 1   
    81   80   81 1   
    82   80   83 1   
    83   80   87 1   
    84   81   82 2   
    85   81   93 1   
    86   83   84 1   
    87   83   85 1   
    88   83   88 1   
    89   84   90 1   
    90   84   91 1   
    91   84   92 1   
    92   85   89 1   
    93   93   94 1   
    94   93  101 1   
    95   94   95 1   
    96   94   97 1   
    97   94  102 1   
    98   95   96 2   
    99   95  112 1   
   100   97   98 1   
   101   97   99 1   
   102   97  103 1   
   103   98  100 1   
   104   98  104 1   
   105   98  105 1   
   106   99  106 1   
   107   99  107 1   
   108   99  108 1   
   109  100  109 1   
   110  100  110 1   
   111  100  111 1   
   112  112  113 1   
   113  112  119 1   
   114  113  114 1   
   115  113  116 1   
   116  113  120 1   
   117  114  115 2   
   118  114  126 1   
   119  116  117 1   
   120  116  118 1   
   121  116  121 1   
   122  117  123 1   
   123  117  124 1   
   124  117  125 1   
   125  118  122 1   
   126  126  127 1   
   127  126  133 1   
   128  127  128 1   
   129  127  130 1   
   130  127  134 1   
   131  128  129 2   
   132  128  140 1   
   133  130  131 1   
   134  130  132 1   
   135  130  135 1   
   136  131  137 1   
   137  131  138 1   
   138  131  139 1   
   139  132  136 1   
   140  140  141 1   
   141  140  149 1   
   142  141  142 1   
   143  141  144 1   
   144  141  150 1   
   145  142  143 2   
   146  142  162 1   
   147  144  145 1   
   148  144  151 1   
   149  144  152 1   
   150  145  146 1   
   151  145  153 1   
   152  145  154 1   
   153  146  147 1   
   154  146  155 1   
   155  146  156 1   
   156  147  148 1   
   157  147  157 1   
   158  147  158 1   
   159  148  159 1   
   160  148  160 1   
   161  148  161 1   
   162  162  163 1   
   163  162  171 1   
   164  163  164 1   
   165  163  166 1   
   166  163  172 1   
   167  164  165 2   
   168  164  177 1   
   169  166  167 1   
   170  166  173 1   
   171  166  174 1   
   172  167  168 1   
   173  167  175 1   
   174  167  176 1   
   175  168  169 1   
   176  168  170 1   
   177  177  178 1   
   178  177  182 1   
   179  178  179 1   
   180  178  180 1   
   181  178  181 1   
   182  184  185 1   
   183  184  186 1   
@<TRIPOS>SUBSTRUCTURE
     1 MOL         1 TEMP              0 ****  ****    0 ROOT
