@<TRIPOS>MOLECULE
MOL
  195   189     1     0     0
SMALL
resp


@<TRIPOS>ATOM
      1 C1          5.9740   -0.2020    6.0220 c3        1 MOL     -0.251145
      2 C2          5.4010    0.0570    4.6270 c         1 MOL      0.828752
      3 O1          5.0870    1.2100    4.2970 o         1 MOL     -0.605511
      4 H1          6.8280   -0.8740    5.9450 hc        1 MOL      0.060124
      5 H2          6.2950    0.7420    6.4650 hc        1 MOL      0.060124
      6 H3          5.2100   -0.6580    6.6510 hc        1 MOL      0.060124
      7 N1          5.2580   -0.9910    3.7570 n         1 MOL     -0.758672
      8 C3          5.0400   -0.8410    2.3200 c3        1 MOL      0.510432
      9 C4          3.5870   -0.5730    1.8140 c         1 MOL     -0.050217
     10 O2          3.3360   -0.3120    0.6460 o         1 MOL     -0.177097
     11 C5          5.5920   -2.1370    1.6560 c3        1 MOL     -0.089117
     12 C6          7.0250   -2.4520    2.0830 c         1 MOL      0.647798
     13 O3          7.8350   -2.8190    1.2080 o         1 MOL     -0.651575
     14 O4          7.2890   -2.6660    3.2660 o         1 MOL     -0.651575
     15 H4          5.4770   -1.9280    4.0830 hn        1 MOL      0.310561
     16 H5          5.7070   -0.1020    1.8960 h1        1 MOL      0.052468
     17 H6          5.5540   -2.0670    0.5680 hc        1 MOL     -0.052522
     18 H7          4.9360   -2.9780    1.8780 hc        1 MOL     -0.052522
     19 N2          2.6430   -0.5010    2.7320 n         1 MOL     -0.205159
     20 C7          1.2280   -0.4610    2.4520 c3        1 MOL      0.063317
     21 C8          0.6970    0.9940    2.5190 c         1 MOL      0.435582
     22 O5          0.9390    1.8170    3.3900 o         1 MOL     -0.496954
     23 C9          0.4700   -1.3370    3.4520 c3        1 MOL     -0.265783
     24 C10         0.7140   -2.8770    3.3460 c3        1 MOL      0.002829
     25 C11        -0.0180   -3.6150    4.3860 c3        1 MOL      0.014335
     26 C12         0.0140   -5.1280    4.0780 c3        1 MOL     -0.042596
     27 N3         -0.3340   -5.9010    5.2780 n4        1 MOL     -0.357818
     28 H8          2.9680   -0.3770    3.6800 hn        1 MOL      0.222541
     29 H9          1.0330   -0.7240    1.4200 h1        1 MOL      0.200523
     30 H10        -0.5920   -1.1040    3.4020 hc        1 MOL      0.087322
     31 H11         0.8040   -1.0790    4.4570 hc        1 MOL      0.087322
     32 H12         1.7660   -3.1440    3.4940 hc        1 MOL      0.020332
     33 H13         0.3320   -3.2810    2.4110 hc        1 MOL      0.020332
     34 H14        -1.0680   -3.3000    4.3810 hc        1 MOL      0.036778
     35 H15         0.5060   -3.3360    5.3020 hc        1 MOL      0.036778
     36 H16         1.0320   -5.4320    3.8450 hx        1 MOL      0.110645
     37 H17        -0.8160   -5.3410    3.3960 hx        1 MOL      0.110645
     38 H18        -0.4690   -6.8860    5.1040 hn        1 MOL      0.309909
     39 H19         0.4590   -5.8350    5.9030 hn        1 MOL      0.309909
     40 H20        -1.1700   -5.4930    5.6750 hn        1 MOL      0.309909
     41 N4         -0.3100    1.3590    1.6870 n         1 MOL     -0.078338
     42 C13        -1.0440    0.6460    0.5740 c3        1 MOL     -0.490683
     43 C14        -1.5310   -0.7980    0.9120 c         1 MOL      0.188362
     44 O6         -0.8970   -1.8070    0.4800 o         1 MOL     -0.374843
     45 C15        -0.3610    0.7720   -0.8450 c3        1 MOL     -0.375786
     46 C16        -0.2350    2.2070   -1.3510 c         1 MOL      0.811634
     47 O7          0.1380    2.3840   -2.5380 o         1 MOL     -0.737757
     48 O8         -0.5640    3.1760   -0.6380 o         1 MOL     -0.737757
     49 H21        -0.6070    2.3220    1.7870 hn        1 MOL      0.131191
     50 H22        -2.0140    1.1590    0.5850 h1        1 MOL      0.173636
     51 H23        -1.1260    0.3030   -1.4640 hc        1 MOL      0.197019
     52 H24         0.5460    0.1650   -0.8150 hc        1 MOL      0.197019
     53 N5         -2.6370   -1.0000    1.5900 n         1 MOL     -0.063386
     54 C17        -3.5610   -0.0400    2.2360 c3        1 MOL     -0.057686
     55 C18        -4.7930   -0.7490    2.9650 c         1 MOL      0.564546
     56 O9         -4.8180   -1.9500    3.0430 o         1 MOL     -0.571819
     57 H25        -2.8920   -1.9800    1.6670 hn        1 MOL      0.188415
     58 H26        -3.8590    0.6620    1.4650 h1        1 MOL      0.070279
     59 H27        -3.0070    0.4530    3.0380 h1        1 MOL      0.070279
     60 N6         -5.7920   -0.0020    3.3790 n         1 MOL     -0.389189
     61 C19        -6.0430    1.4590    3.1510 c3        1 MOL     -0.179034
     62 C20        -7.1840    1.5930    2.0630 c         1 MOL      0.493654
     63 O10        -8.3190    1.1110    2.1760 o         1 MOL     -0.431949
     64 C21        -6.3540    2.1980    4.4520 c3        1 MOL     -0.060218
     65 C22        -7.4850    1.6270    5.3090 c         1 MOL      0.698694
     66 O11        -8.2830    2.4190    5.8780 o         1 MOL     -0.662522
     67 O12        -7.5050    0.3990    5.5460 o         1 MOL     -0.662522
     68 H28        -6.3830   -0.4910    4.0320 hn        1 MOL      0.302663
     69 H29        -5.1670    1.8490    2.6430 h1        1 MOL      0.067415
     70 H30        -6.5200    3.2530    4.2160 hc        1 MOL      0.013375
     71 H31        -5.4940    2.2160    5.1260 hc        1 MOL      0.013375
     72 N7         -6.9280    2.4020    0.9870 n         1 MOL     -0.276534
     73 C23        -7.7820    2.4640   -0.1390 c3        1 MOL     -0.256104
     74 C24        -7.5300    1.3630   -1.2000 c         1 MOL      0.609140
     75 O13        -8.4710    0.8880   -1.7770 o         1 MOL     -0.534893
     76 H32        -6.0080    2.8180    0.9860 hn        1 MOL      0.228808
     77 H33        -7.5600    3.3940   -0.6550 h1        1 MOL      0.127643
     78 H34        -8.8290    2.4680    0.1570 h1        1 MOL      0.127643
     79 N8         -6.2630    0.8930   -1.3410 n         1 MOL     -0.336037
     80 C25        -5.8020   -0.0790   -2.3000 c3        1 MOL     -0.054332
     81 C26        -4.7460   -0.9580   -1.5700 c         1 MOL      0.287047
     82 O14        -3.8340   -0.5220   -0.9320 o         1 MOL     -0.337831
     83 C27        -5.0310    0.6410   -3.4820 c3        1 MOL      0.148584
     84 C28        -5.8830    1.5340   -4.3850 c3        1 MOL     -0.191601
     85 O15        -4.4490   -0.4270   -4.2350 oh        1 MOL     -0.562755
     86 H35        -5.5000    1.2940   -0.8240 hn        1 MOL      0.186643
     87 H36        -6.5630   -0.7510   -2.6730 h1        1 MOL      0.130868
     88 H37        -4.1830    1.1710   -3.0640 h1        1 MOL      0.065280
     89 H38        -4.4430   -0.0720   -5.1290 ho        1 MOL      0.420129
     90 H39        -6.2550    2.4180   -3.8590 hc        1 MOL      0.057762
     91 H40        -5.2060    1.9290   -5.1390 hc        1 MOL      0.057762
     92 H41        -6.6450    1.0580   -5.0070 hc        1 MOL      0.057762
     93 N9         -4.8350   -2.2510   -1.8040 n         1 MOL     -0.081403
     94 C29        -3.9650   -3.2920   -1.2140 c3        1 MOL     -0.461582
     95 C30        -2.6950   -3.6210   -2.0470 c         1 MOL      0.493733
     96 O16        -2.0010   -4.5770   -1.7860 o         1 MOL     -0.525293
     97 C31        -4.7590   -4.5270   -0.6800 c3        1 MOL      0.209529
     98 C32        -5.5930   -5.2170   -1.8780 c3        1 MOL     -0.126135
     99 C33        -5.6970   -3.9930    0.4180 c3        1 MOL     -0.068630
    100 C34        -6.4790   -6.3470   -1.3600 c3        1 MOL     -0.098396
    101 H42        -5.5650   -2.5290   -2.4430 hn        1 MOL      0.217726
    102 H43        -3.4840   -2.8790   -0.3300 h1        1 MOL      0.202338
    103 H44        -4.1540   -5.2380   -0.1090 hc        1 MOL      0.023332
    104 H45        -4.8290   -5.6200   -2.5420 hc        1 MOL      0.054777
    105 H46        -6.2310   -4.5060   -2.4010 hc        1 MOL      0.054777
    106 H47        -6.5150   -3.4110    0.0010 hc        1 MOL      0.020456
    107 H48        -6.1080   -4.7680    1.0570 hc        1 MOL      0.020456
    108 H49        -5.1930   -3.2170    0.9890 hc        1 MOL      0.020456
    109 H50        -6.9330   -6.9690   -2.1320 hc        1 MOL      0.030613
    110 H51        -5.9120   -7.0140   -0.7090 hc        1 MOL      0.030613
    111 H52        -7.2630   -5.9580   -0.7120 hc        1 MOL      0.030613
    112 N10        -2.3980   -2.7480   -3.0610 n         1 MOL     -0.000028
    113 C35        -1.3150   -2.9690   -4.0580 c3        1 MOL     -0.400520
    114 C36         0.1600   -2.9090   -3.4620 c         1 MOL      0.446276
    115 O17         1.0860   -3.2810   -4.2450 o         1 MOL     -0.542725
    116 C37        -1.3290   -1.8890   -5.1620 c3        1 MOL      0.266909
    117 C38        -1.2170   -0.5010   -4.5540 c3        1 MOL     -0.006244
    118 O18        -2.5420   -2.0960   -5.9010 oh        1 MOL     -0.649544
    119 H53        -3.0340   -1.9860   -3.2430 hn        1 MOL      0.076540
    120 H54        -1.3510   -3.9600   -4.5080 h1        1 MOL      0.174084
    121 H55        -0.4790   -1.9550   -5.8280 h1        1 MOL      0.072083
    122 H56        -2.6170   -3.0130   -6.1750 ho        1 MOL      0.404049
    123 H57        -1.5200    0.2100   -5.3210 hc        1 MOL      0.029548
    124 H58        -1.7410   -0.3480   -3.6000 hc        1 MOL      0.029548
    125 H59        -0.1450   -0.3960   -4.3950 hc        1 MOL      0.029548
    126 N11         0.4550   -2.5400   -2.2520 n         1 MOL     -0.249105
    127 C39         1.7730   -2.2750   -1.6470 c3        1 MOL      0.085544
    128 C40         2.7720   -1.4070   -2.4320 c         1 MOL      0.393231
    129 O19         2.5020   -0.8270   -3.5050 o         1 MOL     -0.442340
    130 C41         2.4470   -3.5770   -1.2250 c3        1 MOL      0.343247
    131 C42         1.4510   -4.6300   -0.6780 c3        1 MOL     -0.438463
    132 O20         3.4480   -3.3310   -0.2770 oh        1 MOL     -0.586129
    133 H60        -0.3570   -2.5040   -1.6410 hn        1 MOL      0.180785
    134 H61         1.5510   -1.6770   -0.7660 h1        1 MOL     -0.001349
    135 H62         2.9140   -3.9370   -2.1400 h1        1 MOL     -0.007492
    136 H63         3.7700   -4.1750    0.0560 ho        1 MOL      0.361780
    137 H64         0.8170   -4.1690    0.0860 hc        1 MOL      0.104660
    138 H65         0.8280   -5.0580   -1.4600 hc        1 MOL      0.104660
    139 H66         1.9630   -5.5090   -0.2670 hc        1 MOL      0.104660
    140 N12         3.9710   -1.1570   -1.8120 n         1 MOL     -0.474967
    141 C43         4.9880   -0.3090   -2.4980 c3        1 MOL      0.086453
    142 C44         4.8970    1.2160   -2.1170 c         1 MOL      0.479585
    143 O21         5.4770    1.9200   -2.9330 o         1 MOL     -0.582232
    144 C45         6.3820   -0.8840   -2.3490 c3        1 MOL     -0.022703
    145 C46         6.4910   -2.3720   -2.5970 c3        1 MOL      0.120750
    146 C47         7.9280   -2.9410   -2.2990 c3        1 MOL      0.068302
    147 C48         7.8380   -4.4620   -2.0030 c3        1 MOL     -0.251935
    148 N13         7.2560   -4.8120   -0.6950 n4        1 MOL     -0.027572
    149 H67         4.0460   -1.4310   -0.8480 hn        1 MOL      0.380253
    150 H68         4.7590   -0.3740   -3.5640 h1        1 MOL      0.074006
    151 H69         6.7270   -0.7120   -1.3230 hc        1 MOL      0.009943
    152 H70         7.0120   -0.3440   -3.0530 hc        1 MOL      0.009943
    153 H71         6.2630   -2.6560   -3.6190 hc        1 MOL     -0.030851
    154 H72         5.8020   -2.9750   -2.0130 hc        1 MOL     -0.030851
    155 H73         8.2710   -2.4260   -1.3910 hc        1 MOL      0.019800
    156 H74         8.6130   -2.6860   -3.1070 hc        1 MOL      0.019800
    157 H75         8.8690   -4.8070   -1.9180 hx        1 MOL      0.122479
    158 H76         7.2390   -4.9270   -2.7810 hx        1 MOL      0.122479
    159 H77         6.2520   -4.7270   -0.6900 hn        1 MOL      0.221463
    160 H78         7.5010   -5.7590   -0.4600 hn        1 MOL      0.221463
    161 H79         7.5630   -4.1860    0.0410 hn        1 MOL      0.221463
    162 N14         4.3050    1.6630   -1.0090 n         1 MOL     -0.009073
    163 C49         4.4680    2.9600   -0.4080 c3        1 MOL     -0.478467
    164 C50         5.9380    3.2530   -0.0390 c         1 MOL      0.639283
    165 O22         6.4020    2.5220    0.8210 o         1 MOL     -0.558759
    166 C51         3.4630    3.1670    0.7740 c3        1 MOL      1.013082
    167 C52         3.4020    4.5620    1.4250 c3        1 MOL     -0.982472
    168 C53         3.2660    5.7460    0.5600 c         1 MOL      0.827320
    169 O23         2.1530    6.1040    0.1150 o         1 MOL     -0.738037
    170 O24         4.2410    6.2900   -0.0360 o         1 MOL     -0.738037
    171 H80         3.9930    0.9520   -0.3540 hn        1 MOL     -0.051413
    172 H81         4.2180    3.7740   -1.0770 h1        1 MOL      0.112631
    173 H82         3.7040    2.4100    1.5250 hc        1 MOL     -0.209278
    174 H83         2.4290    2.9700    0.4810 hc        1 MOL     -0.209278
    175 H84         4.2850    4.7170    2.0510 hc        1 MOL      0.221506
    176 H85         2.5720    4.6120    2.1240 hc        1 MOL      0.221506
    177 N15         6.5110    4.3910   -0.4210 n         1 MOL     -0.485696
    178 C54         7.8990    4.8520   -0.0710 c3        1 MOL      0.012501
    179 H86         8.1440    5.7380   -0.6560 h1        1 MOL      0.054120
    180 H87         7.9450    5.0950    0.9910 h1        1 MOL      0.054120
    181 H88         8.6130    4.0600   -0.2940 h1        1 MOL      0.054120
    182 H89         5.8830    5.0620   -0.8340 hn        1 MOL      0.399035
    183 Ca1        -0.4650    5.8040   -0.2490 Ca        1 MOL      1.703311
    184 O25         0.6970    7.8580   -1.7840 oh        1 MOL     -0.827940
    185 H90         1.3970    7.4790   -2.2940 ho        1 MOL      0.413411
    186 H91         1.0950    8.6190   -1.3580 ho        1 MOL      0.413411
    187 O26         0.7600    5.0890   -2.5360 oh        1 MOL     -0.827940
    188 H92         0.5380    4.2050   -2.8300 ho        1 MOL      0.413411
    189 H93         1.4090    5.3880   -3.1750 ho        1 MOL      0.413411
    190 O27        -1.6990    5.2320   -3.2220 oh        1 MOL     -0.827940
    191 H94        -1.3370    4.6820   -3.9090 ho        1 MOL      0.413411
    192 H95        -2.2620    5.8640   -3.6940 ho        1 MOL      0.413411
    193 O28        -2.4530    7.4310   -1.1260 oh        1 MOL     -0.827940
    194 H96        -3.1680    8.0450   -0.9490 ho        1 MOL      0.413411
    195 H97        -2.5350    7.2300   -2.0610 ho        1 MOL      0.413411
@<TRIPOS>BOND
     1    1    2 1   
     2    1    4 1   
     3    1    5 1   
     4    1    6 1   
     5    2    3 2   
     6    2    7 1   
     7    7    8 1   
     8    7   15 1   
     9    8    9 1   
    10    8   11 1   
    11    8   16 1   
    12    9   10 2   
    13    9   19 1   
    14   11   12 1   
    15   11   17 1   
    16   11   18 1   
    17   12   13 1   
    18   12   14 1   
    19   19   20 1   
    20   19   28 1   
    21   20   21 1   
    22   20   23 1   
    23   20   29 1   
    24   21   22 2   
    25   21   41 1   
    26   23   24 1   
    27   23   30 1   
    28   23   31 1   
    29   24   25 1   
    30   24   32 1   
    31   24   33 1   
    32   25   26 1   
    33   25   34 1   
    34   25   35 1   
    35   26   27 1   
    36   26   36 1   
    37   26   37 1   
    38   27   38 1   
    39   27   39 1   
    40   27   40 1   
    41   41   42 1   
    42   41   49 1   
    43   42   43 1   
    44   42   45 1   
    45   42   50 1   
    46   43   44 2   
    47   43   53 1   
    48   45   46 1   
    49   45   51 1   
    50   45   52 1   
    51   46   47 1   
    52   46   48 1   
    53   53   54 1   
    54   53   57 1   
    55   54   55 1   
    56   54   58 1   
    57   54   59 1   
    58   55   56 2   
    59   55   60 1   
    60   60   61 1   
    61   60   68 1   
    62   61   62 1   
    63   61   64 1   
    64   61   69 1   
    65   62   63 2   
    66   62   72 1   
    67   64   65 1   
    68   64   70 1   
    69   64   71 1   
    70   65   66 1   
    71   65   67 1   
    72   72   73 1   
    73   72   76 1   
    74   73   74 1   
    75   73   77 1   
    76   73   78 1   
    77   74   75 2   
    78   74   79 1   
    79   79   80 1   
    80   79   86 1   
    81   80   81 1   
    82   80   83 1   
    83   80   87 1   
    84   81   82 2   
    85   81   93 1   
    86   83   84 1   
    87   83   85 1   
    88   83   88 1   
    89   84   90 1   
    90   84   91 1   
    91   84   92 1   
    92   85   89 1   
    93   93   94 1   
    94   93  101 1   
    95   94   95 1   
    96   94   97 1   
    97   94  102 1   
    98   95   96 2   
    99   95  112 1   
   100   97   98 1   
   101   97   99 1   
   102   97  103 1   
   103   98  100 1   
   104   98  104 1   
   105   98  105 1   
   106   99  106 1   
   107   99  107 1   
   108   99  108 1   
   109  100  109 1   
   110  100  110 1   
   111  100  111 1   
   112  112  113 1   
   113  112  119 1   
   114  113  114 1   
   115  113  116 1   
   116  113  120 1   
   117  114  115 2   
   118  114  126 1   
   119  116  117 1   
   120  116  118 1   
   121  116  121 1   
   122  117  123 1   
   123  117  124 1   
   124  117  125 1   
   125  118  122 1   
   126  126  127 1   
   127  126  133 1   
   128  127  128 1   
   129  127  130 1   
   130  127  134 1   
   131  128  129 2   
   132  128  140 1   
   133  130  131 1   
   134  130  132 1   
   135  130  135 1   
   136  131  137 1   
   137  131  138 1   
   138  131  139 1   
   139  132  136 1   
   140  140  141 1   
   141  140  149 1   
   142  141  142 1   
   143  141  144 1   
   144  141  150 1   
   145  142  143 2   
   146  142  162 1   
   147  144  145 1   
   148  144  151 1   
   149  144  152 1   
   150  145  146 1   
   151  145  153 1   
   152  145  154 1   
   153  146  147 1   
   154  146  155 1   
   155  146  156 1   
   156  147  148 1   
   157  147  157 1   
   158  147  158 1   
   159  148  159 1   
   160  148  160 1   
   161  148  161 1   
   162  162  163 1   
   163  162  171 1   
   164  163  164 1   
   165  163  166 1   
   166  163  172 1   
   167  164  165 2   
   168  164  177 1   
   169  166  167 1   
   170  166  173 1   
   171  166  174 1   
   172  167  168 1   
   173  167  175 1   
   174  167  176 1   
   175  168  169 1   
   176  168  170 1   
   177  177  178 1   
   178  177  182 1   
   179  178  179 1   
   180  178  180 1   
   181  178  181 1   
   182  184  185 1   
   183  184  186 1   
   184  187  188 1   
   185  187  189 1   
   186  190  191 1   
   187  190  192 1   
   188  193  194 1   
   189  193  195 1   
@<TRIPOS>SUBSTRUCTURE
     1 MOL         1 TEMP              0 ****  ****    0 ROOT
