@<TRIPOS>MOLECULE
MOL
  182   178     1     0     0
SMALL
resp


@<TRIPOS>ATOM
      1 C1         -0.1580    4.4690    5.4260 c3        1 MOL     -0.418589
      2 C2         -0.4200    4.1220    3.9470 c         1 MOL      0.741557
      3 O1          0.5400    4.1050    3.1270 o         1 MOL     -0.607447
      4 H1         -1.1080    4.5390    5.9560 hc        1 MOL      0.122362
      5 H2          0.4530    3.6890    5.8790 hc        1 MOL      0.122362
      6 H3          0.3640    5.4240    5.4880 hc        1 MOL      0.122362
      7 N1         -1.6880    3.8020    3.6080 n         1 MOL     -0.564137
      8 C3         -2.1230    3.2440    2.3200 c3        1 MOL     -0.011357
      9 C4         -2.2580    4.2190    1.1570 c         1 MOL      0.647929
     10 O2         -2.7510    5.2950    1.3870 o         1 MOL     -0.545102
     11 C5         -3.3950    2.4730    2.5470 c3        1 MOL      0.073306
     12 C6         -3.7460    1.5000    1.4870 c         1 MOL      0.323379
     13 O3         -4.3830    0.5080    1.8580 o         1 MOL     -0.574287
     14 O4         -3.3620    1.7100    0.3110 o         1 MOL     -0.574287
     15 H4         -2.3470    3.8160    4.3800 hn        1 MOL      0.326461
     16 H5         -1.3510    2.5510    1.9910 h1        1 MOL     -0.029618
     17 H6         -4.2680    3.0910    2.7640 hc        1 MOL      0.016616
     18 H7         -3.1530    1.9250    3.4570 hc        1 MOL      0.016616
     19 N2         -1.7560    3.9100   -0.1130 n         1 MOL     -0.376449
     20 C7         -2.0260    4.8250   -1.2710 c3        1 MOL     -0.229660
     21 C8         -3.3340    4.6140   -2.0770 c         1 MOL      0.644393
     22 O5         -3.5960    5.5390   -2.8700 o         1 MOL     -0.584265
     23 C9         -0.7540    4.8310   -2.1520 c3        1 MOL      0.023340
     24 C10         0.3820    5.5270   -1.4060 c3        1 MOL      0.103323
     25 C11         1.6000    5.7060   -2.2380 c3        1 MOL     -0.089689
     26 C12         1.4790    6.6260   -3.4650 c3        1 MOL      0.048027
     27 N3          2.8130    6.8320   -3.9680 n4        1 MOL     -0.204351
     28 H8         -1.1420    3.1120   -0.1760 hn        1 MOL      0.310434
     29 H9         -2.0600    5.8080   -0.8100 h1        1 MOL      0.138881
     30 H10        -0.9680    5.3360   -3.0950 hc        1 MOL     -0.004030
     31 H11        -0.5250    3.7730   -2.3160 hc        1 MOL     -0.004030
     32 H12         0.5830    4.9540   -0.5090 hc        1 MOL      0.011803
     33 H13        -0.0010    6.4690   -0.9950 hc        1 MOL      0.011803
     34 H14         1.8430    4.7270   -2.6530 hc        1 MOL      0.042929
     35 H15         2.2900    6.1790   -1.5510 hc        1 MOL      0.042929
     36 H16         1.0200    7.5860   -3.2440 hx        1 MOL      0.072808
     37 H17         0.8290    6.1020   -4.1680 hx        1 MOL      0.072808
     38 H18         3.5550    7.2440   -3.4210 hn        1 MOL      0.235299
     39 H19         3.1690    5.9340   -4.2520 hn        1 MOL      0.235299
     40 H20         2.7510    7.4570   -4.7660 hn        1 MOL      0.235299
     41 N4         -4.1550    3.6240   -1.7650 n         1 MOL     -0.319846
     42 C13        -5.4450    3.2450   -2.4360 c3        1 MOL      0.043739
     43 C14        -6.5590    3.0240   -1.3690 c         1 MOL      0.410582
     44 O6         -7.7620    2.9910   -1.7090 o         1 MOL     -0.519819
     45 C15        -5.2840    1.9820   -3.3130 c3        1 MOL     -0.191184
     46 C16        -4.5830    0.9120   -2.5140 c         1 MOL      0.710885
     47 O7         -5.1560    0.3400   -1.5800 o         1 MOL     -0.721519
     48 O8         -3.4190    0.6520   -2.7990 o         1 MOL     -0.721519
     49 H21        -3.8540    3.0640   -0.9870 hn        1 MOL      0.071916
     50 H22        -5.7080    4.0300   -3.1500 h1        1 MOL      0.107908
     51 H23        -4.6830    2.1290   -4.2180 hc        1 MOL      0.074508
     52 H24        -6.2820    1.6090   -3.5230 hc        1 MOL      0.074508
     53 N5         -6.2190    2.7750   -0.0930 n         1 MOL     -0.210079
     54 C17        -7.1250    2.6770    1.0370 c3        1 MOL     -0.184854
     55 C18        -7.4780    1.2100    1.3960 c         1 MOL      0.545921
     56 O9         -8.2660    1.0240    2.3230 o         1 MOL     -0.552154
     57 H25        -5.2420    2.5220    0.0020 hn        1 MOL      0.251106
     58 H26        -8.0000    3.3010    0.8970 h1        1 MOL      0.128063
     59 H27        -6.5190    3.1040    1.8390 h1        1 MOL      0.128063
     60 N6         -7.0210    0.1640    0.6480 n         1 MOL     -0.200158
     61 C19        -7.4360   -1.2230    0.7860 c3        1 MOL      0.052410
     62 C20        -6.3410   -2.2600    0.7710 c         1 MOL      0.483203
     63 O10        -5.1640   -1.9370    0.3780 o         1 MOL     -0.519375
     64 C21        -8.5490   -1.4030   -0.2520 c3        1 MOL     -0.332023
     65 C22        -8.2060   -2.0220   -1.5970 c         1 MOL      0.561186
     66 N7         -7.0080   -1.7730   -2.0630 n         1 MOL     -0.644839
     67 O11        -8.8990   -2.9000   -2.1080 o         1 MOL     -0.567131
     68 H28        -6.3050    0.3670   -0.0360 hn        1 MOL      0.165806
     69 H29        -7.8450   -1.3190    1.7890 h1        1 MOL      0.065935
     70 H30        -9.1540   -0.5030   -0.4020 hc        1 MOL      0.124330
     71 H31        -9.3250   -2.0620    0.1450 hc        1 MOL      0.124330
     72 H32        -6.5380   -0.9650   -1.6890 hn        1 MOL      0.323434
     73 H33        -6.6860   -2.2880   -2.8670 hn        1 MOL      0.323434
     74 N8         -6.6530   -3.5130    1.1760 n         1 MOL     -0.335026
     75 C23        -5.8100   -4.7350    1.1510 c3        1 MOL     -0.210174
     76 C24        -4.3970   -4.5860    1.8150 c         1 MOL      0.584032
     77 O12        -4.3700   -4.1840    2.9510 o         1 MOL     -0.489042
     78 H34        -7.5350   -3.5730    1.6690 hn        1 MOL      0.304887
     79 H35        -5.6940   -4.9880    0.0930 h1        1 MOL      0.119323
     80 H36        -6.3150   -5.5650    1.6600 h1        1 MOL      0.119323
     81 N9         -3.3240   -5.0420    1.2030 n         1 MOL     -0.453953
     82 C25        -1.9070   -4.8710    1.6610 c3        1 MOL      0.049445
     83 C26        -1.4440   -3.3900    1.6680 c         1 MOL      0.927654
     84 O13        -2.0920   -2.5460    1.0390 o         1 MOL     -0.775737
     85 C27        -0.9610   -5.7410    0.7640 c3        1 MOL     -0.394321
     86 C28        -1.0620   -5.6380   -0.7670 ca        1 MOL      0.243452
     87 C29        -0.2420   -4.7120   -1.4040 ca        1 MOL     -0.265054
     88 C30        -1.8420   -6.5610   -1.5020 ca        1 MOL     -0.265054
     89 C31        -0.1750   -4.7310   -2.7470 ca        1 MOL     -0.148492
     90 C32        -1.7460   -6.5180   -2.9100 ca        1 MOL     -0.148492
     91 C33        -0.9120   -5.5590   -3.5640 ca        1 MOL      0.249197
     92 O14        -0.8030   -5.5200   -4.9250 oh        1 MOL     -0.456262
     93 H37        -3.5670   -5.7110    0.4810 hn        1 MOL      0.262651
     94 H38        -1.8830   -5.1750    2.7070 h1        1 MOL      0.073675
     95 H39        -1.1140   -6.7970    0.9630 hc        1 MOL      0.126034
     96 H40         0.0660   -5.4440    0.9700 hc        1 MOL      0.126034
     97 H41         0.2910   -4.0020   -0.7940 ha        1 MOL      0.164938
     98 H42        -2.4780   -7.2870   -1.0220 ha        1 MOL      0.164938
     99 H43         0.5140   -4.0980   -3.2890 ha        1 MOL      0.129283
    100 H44        -2.3320   -7.1910   -3.5180 ha        1 MOL      0.129283
    101 H45        -0.2480   -4.7810   -5.1980 ho        1 MOL      0.363077
    102 N10        -0.4440   -3.0170    2.4510 n         1 MOL     -0.749331
    103 C34         0.0390   -1.6920    2.7770 c3        1 MOL      0.213850
    104 C35         0.2140   -0.7340    1.5240 c         1 MOL      0.342621
    105 O15        -0.7520   -0.2390    0.9790 o         1 MOL     -0.374392
    106 C36        -0.9240   -0.9610    3.7870 c3        1 MOL      0.210751
    107 C37        -0.3670    0.3780    4.3370 c3        1 MOL     -0.148151
    108 C38        -1.3510   -1.8810    4.9680 c3        1 MOL     -0.400002
    109 C39         1.1230    0.3800    4.7220 c3        1 MOL     -0.258466
    110 H46         0.0590   -3.7190    2.9720 hn        1 MOL      0.331152
    111 H47         0.9250   -1.7910    3.4010 h1        1 MOL      0.026011
    112 H48        -1.8320   -0.7720    3.2200 hc        1 MOL      0.033707
    113 H49        -0.9040    0.6540    5.2430 hc        1 MOL      0.068953
    114 H50        -0.5540    1.1780    3.6250 hc        1 MOL      0.068953
    115 H51        -0.6270   -2.0070    5.7700 hc        1 MOL      0.101606
    116 H52        -2.2600   -1.4610    5.4000 hc        1 MOL      0.101606
    117 H53        -1.6940   -2.8370    4.5830 hc        1 MOL      0.101606
    118 H54         1.6590    0.1200    3.8010 hc        1 MOL      0.072540
    119 H55         1.5880    1.3130    5.0080 hc        1 MOL      0.072540
    120 H56         1.2730   -0.3440    5.5240 hc        1 MOL      0.072540
    121 N11         1.4700   -0.5610    1.1920 n         1 MOL     -0.337202
    122 C40         1.8900    0.3970    0.1440 c3        1 MOL     -0.083506
    123 C41         3.3720    0.2900   -0.3170 c         1 MOL      0.601151
    124 O16         3.7360    1.1810   -1.1270 o         1 MOL     -0.571313
    125 C42         1.5200    1.8270    0.6790 c3        1 MOL      0.590054
    126 O17         2.0560    2.2630    1.9390 oh        1 MOL     -0.705934
    127 H57         2.1800   -1.1290    1.6360 hn        1 MOL      0.248851
    128 H58         1.2320    0.2000   -0.7050 h1        1 MOL      0.039367
    129 H59         0.4470    2.0060    0.6830 h1        1 MOL     -0.100533
    130 H60         1.9020    2.5300   -0.0570 h1        1 MOL     -0.100533
    131 H61         1.4230    2.8340    2.3840 ho        1 MOL      0.440393
    132 N12         4.1170   -0.7060    0.1330 n         1 MOL     -0.519965
    133 C43         5.5430   -0.8290   -0.2000 c3        1 MOL      0.180089
    134 C44         5.8340   -1.6520   -1.5130 c         1 MOL      0.584599
    135 O18         5.0620   -2.5290   -1.8370 o         1 MOL     -0.573702
    136 C45         6.1820   -1.3280    1.1090 c3        1 MOL     -0.223488
    137 H62         3.6880   -1.4500    0.6610 hn        1 MOL      0.272338
    138 H63         5.8940    0.1660   -0.4640 h1        1 MOL      0.080346
    139 H64         5.8230   -2.3230    1.3670 hc        1 MOL      0.075887
    140 H65         7.2460   -1.3920    0.8810 hc        1 MOL      0.075887
    141 H66         6.0420   -0.6460    1.9460 hc        1 MOL      0.075887
    142 N13         6.9480   -1.3900   -2.2520 n         1 MOL     -0.583341
    143 C46         8.0280   -0.4820   -1.9540 c3        1 MOL      0.308607
    144 C47         9.4200   -1.1010   -2.3080 c         1 MOL      0.320688
    145 O19         9.5330   -1.7090   -3.3460 o         1 MOL     -0.521784
    146 C48         7.9150    0.8860   -2.7070 c3        1 MOL     -0.280121
    147 H67         7.0740   -1.9440   -3.0890 hn        1 MOL      0.336290
    148 H68         8.1100   -0.3230   -0.8840 h1        1 MOL     -0.059448
    149 H69         7.0950    1.5380   -2.4290 hc        1 MOL      0.085162
    150 H70         8.8370    1.4840   -2.6410 hc        1 MOL      0.085162
    151 H71         7.7430    0.6120   -3.7480 hc        1 MOL      0.085162
    152 N14        10.4630   -0.8590   -1.5760 n         1 MOL     -0.165500
    153 C49        10.4650   -0.2120   -0.2550 c3        1 MOL     -0.322148
    154 C50         9.8970   -1.1360    0.8450 c         1 MOL      0.573952
    155 O20         9.3670   -0.6340    1.8370 o         1 MOL     -0.523062
    156 C51        11.9620   -0.0400   -0.0020 c3        1 MOL      0.286238
    157 C52        12.2620    0.9760    1.1200 c3        1 MOL     -0.219068
    158 C53        13.7220    1.3070    1.2290 c         1 MOL      0.666483
    159 O21        14.2790    1.0720    2.3710 o         1 MOL     -0.653904
    160 O22        14.3840    1.6770    0.2200 o         1 MOL     -0.653904
    161 H72        11.3160   -1.3820   -1.7690 hn        1 MOL      0.220346
    162 H73         9.9740    0.7540   -0.3220 h1        1 MOL      0.157165
    163 H74        12.3360    0.3790   -0.9310 hc        1 MOL     -0.047376
    164 H75        12.4290   -1.0060    0.2040 hc        1 MOL     -0.047376
    165 H76        11.9250    0.4310    2.0050 hc        1 MOL      0.037209
    166 H77        11.6460    1.8720    1.0450 hc        1 MOL      0.037209
    167 N15         9.9900   -2.4680    0.6260 n         1 MOL     -0.286204
    168 C54         9.3820   -3.5070    1.4310 c3        1 MOL     -0.155872
    169 H78         8.4090   -3.1670    1.7890 h1        1 MOL      0.084361
    170 H79         9.2520   -4.4060    0.8280 h1        1 MOL      0.084361
    171 H80        10.0230   -3.7300    2.2830 h1        1 MOL      0.084361
    172 H81        10.4020   -2.7630   -0.2400 hn        1 MOL      0.250894
    173 Ca1        -3.0300   -0.7590   -0.6450 Ca        1 MOL      1.785428
    174 O23        -3.5550   -2.6210   -2.3700 oh        1 MOL     -0.834679
    175 H82        -3.9970   -3.4580   -2.1840 ho        1 MOL      0.398315
    176 H83        -3.9750   -2.2960   -3.1620 ho        1 MOL      0.398315
    177 O24        -0.6120   -1.5500   -1.6640 oh        1 MOL     -0.834679
    178 H84         0.2160   -2.0180   -1.5940 ho        1 MOL      0.398315
    179 H85        -0.6540   -1.2650   -2.5800 ho        1 MOL      0.398315
    180 O25        -1.2600    1.5680   -1.7640 oh        1 MOL     -0.834679
    181 H86        -2.0420    1.5530   -2.3090 ho        1 MOL      0.398315
    182 H87        -0.5490    1.3430   -2.3630 ho        1 MOL      0.398315
@<TRIPOS>BOND
     1    1    2 1   
     2    1    4 1   
     3    1    5 1   
     4    1    6 1   
     5    2    3 2   
     6    2    7 1   
     7    7    8 1   
     8    7   15 1   
     9    8    9 1   
    10    8   11 1   
    11    8   16 1   
    12    9   10 2   
    13    9   19 1   
    14   11   12 1   
    15   11   17 1   
    16   11   18 1   
    17   12   13 1   
    18   12   14 1   
    19   19   20 1   
    20   19   28 1   
    21   20   21 1   
    22   20   23 1   
    23   20   29 1   
    24   21   22 2   
    25   21   41 1   
    26   23   24 1   
    27   23   30 1   
    28   23   31 1   
    29   24   25 1   
    30   24   32 1   
    31   24   33 1   
    32   25   26 1   
    33   25   34 1   
    34   25   35 1   
    35   26   27 1   
    36   26   36 1   
    37   26   37 1   
    38   27   38 1   
    39   27   39 1   
    40   27   40 1   
    41   41   42 1   
    42   41   49 1   
    43   42   43 1   
    44   42   45 1   
    45   42   50 1   
    46   43   44 2   
    47   43   53 1   
    48   45   46 1   
    49   45   51 1   
    50   45   52 1   
    51   46   47 1   
    52   46   48 1   
    53   53   54 1   
    54   53   57 1   
    55   54   55 1   
    56   54   58 1   
    57   54   59 1   
    58   55   56 2   
    59   55   60 1   
    60   60   61 1   
    61   60   68 1   
    62   61   62 1   
    63   61   64 1   
    64   61   69 1   
    65   62   63 2   
    66   62   74 1   
    67   64   65 1   
    68   64   70 1   
    69   64   71 1   
    70   65   66 1   
    71   65   67 2   
    72   66   72 1   
    73   66   73 1   
    74   74   75 1   
    75   74   78 1   
    76   75   76 1   
    77   75   79 1   
    78   75   80 1   
    79   76   77 2   
    80   76   81 1   
    81   81   82 1   
    82   81   93 1   
    83   82   83 1   
    84   82   85 1   
    85   82   94 1   
    86   83   84 2   
    87   83  102 1   
    88   85   86 1   
    89   85   95 1   
    90   85   96 1   
    91   86   87 ar  
    92   86   88 ar  
    93   87   89 ar  
    94   87   97 1   
    95   88   90 ar  
    96   88   98 1   
    97   89   91 ar  
    98   89   99 1   
    99   90   91 ar  
   100   90  100 1   
   101   91   92 1   
   102   92  101 1   
   103  102  103 1   
   104  102  110 1   
   105  103  104 1   
   106  103  106 1   
   107  103  111 1   
   108  104  105 2   
   109  104  121 1   
   110  106  107 1   
   111  106  108 1   
   112  106  112 1   
   113  107  109 1   
   114  107  113 1   
   115  107  114 1   
   116  108  115 1   
   117  108  116 1   
   118  108  117 1   
   119  109  118 1   
   120  109  119 1   
   121  109  120 1   
   122  121  122 1   
   123  121  127 1   
   124  122  123 1   
   125  122  125 1   
   126  122  128 1   
   127  123  124 2   
   128  123  132 1   
   129  125  126 1   
   130  125  129 1   
   131  125  130 1   
   132  126  131 1   
   133  132  133 1   
   134  132  137 1   
   135  133  134 1   
   136  133  136 1   
   137  133  138 1   
   138  134  135 2   
   139  134  142 1   
   140  136  139 1   
   141  136  140 1   
   142  136  141 1   
   143  142  143 1   
   144  142  147 1   
   145  143  144 1   
   146  143  146 1   
   147  143  148 1   
   148  144  145 2   
   149  144  152 1   
   150  146  149 1   
   151  146  150 1   
   152  146  151 1   
   153  152  153 1   
   154  152  161 1   
   155  153  154 1   
   156  153  156 1   
   157  153  162 1   
   158  154  155 2   
   159  154  167 1   
   160  156  157 1   
   161  156  163 1   
   162  156  164 1   
   163  157  158 1   
   164  157  165 1   
   165  157  166 1   
   166  158  159 1   
   167  158  160 1   
   168  167  168 1   
   169  167  172 1   
   170  168  169 1   
   171  168  170 1   
   172  168  171 1   
   173  174  175 1   
   174  174  176 1   
   175  177  178 1   
   176  177  179 1   
   177  180  181 1   
   178  180  182 1   
@<TRIPOS>SUBSTRUCTURE
     1 MOL         1 TEMP              0 ****  ****    0 ROOT
