@<TRIPOS>MOLECULE
MOL
  178   175     1     0     0
SMALL
resp


@<TRIPOS>ATOM
      1 C1         -5.1070    8.4390    1.7390 c3        1 MOL     -0.349532
      2 C2         -6.2150    7.9100    0.7880 c         1 MOL      0.602340
      3 O1         -6.5440    8.4850   -0.2280 o         1 MOL     -0.576096
      4 H1         -5.3010    8.0880    2.7520 hc        1 MOL      0.086425
      5 H2         -4.1360    8.0710    1.4080 hc        1 MOL      0.086425
      6 H3         -5.1060    9.5290    1.7270 hc        1 MOL      0.086425
      7 N1         -6.9120    6.8390    1.1160 n         1 MOL     -0.366042
      8 C3         -7.9720    6.1410    0.3520 c3        1 MOL      0.167111
      9 C4         -7.5210    4.9950   -0.5370 c         1 MOL      0.389951
     10 O2         -8.2830    4.5270   -1.3670 o         1 MOL     -0.509072
     11 C5         -8.8140    5.4410    1.3510 c3        1 MOL     -0.255919
     12 C6        -10.1320    4.8650    0.8270 c         1 MOL      0.785325
     13 O3        -10.5170    3.6910    1.0600 o         1 MOL     -0.741175
     14 O4        -10.9530    5.6420    0.2580 o         1 MOL     -0.741175
     15 H4         -6.6420    6.3780    1.9750 hn        1 MOL      0.235356
     16 H5         -8.6090    6.8390   -0.1790 h1        1 MOL      0.061861
     17 H6         -9.0190    6.1710    2.1350 hc        1 MOL      0.003013
     18 H7         -8.2290    4.5870    1.6880 hc        1 MOL      0.003013
     19 N2         -6.3150    4.5680   -0.3480 n         1 MOL     -0.294318
     20 C7         -5.8660    3.3640   -1.0360 c3        1 MOL      0.197616
     21 C8         -4.9360    2.5660   -0.1470 c         1 MOL      0.513153
     22 O5         -4.0410    3.0750    0.5060 o         1 MOL     -0.557052
     23 C9         -5.2870    3.7770   -2.4140 c3        1 MOL     -0.432668
     24 H8         -5.7820    5.0520    0.3560 hn        1 MOL      0.176689
     25 H9         -6.7580    2.7750   -1.2770 h1        1 MOL      0.081293
     26 H10        -6.0320    4.3060   -3.0200 hc        1 MOL      0.119871
     27 H11        -4.4320    4.4380   -2.3090 hc        1 MOL      0.119871
     28 H12        -5.0420    2.8460   -2.9230 hc        1 MOL      0.119871
     29 N3         -5.0270    1.2380   -0.0110 n         1 MOL     -0.438163
     30 C10        -5.8200    0.2630   -0.7380 c3        1 MOL     -0.038742
     31 C11        -5.9670   -0.9770    0.1070 c         1 MOL      0.556387
     32 O6         -4.9980   -1.4000    0.6900 o         1 MOL     -0.521160
     33 C12        -5.1700   -0.1760   -2.0640 c3        1 MOL     -0.161042
     34 C13        -3.6730   -0.5240   -2.0390 c         1 MOL      0.767819
     35 O7         -3.2930   -0.9060   -3.1770 o         1 MOL     -0.736322
     36 O8         -2.8830   -0.3450   -1.0940 o         1 MOL     -0.736322
     37 H13        -4.3620    0.8530    0.6450 hn        1 MOL      0.280269
     38 H14        -6.8380    0.6590   -0.8310 h1        1 MOL      0.048433
     39 H15        -5.2460    0.6250   -2.7950 hc        1 MOL      0.061019
     40 H16        -5.7770   -0.9800   -2.4960 hc        1 MOL      0.061019
     41 N4         -7.0900   -1.6470   -0.1190 n         1 MOL     -0.490019
     42 C14        -7.3810   -3.0770    0.1090 c3        1 MOL      0.061154
     43 C15        -7.2460   -3.9280   -1.2320 c         1 MOL      0.543987
     44 O9         -8.2500   -4.1480   -1.9110 o         1 MOL     -0.555022
     45 H17        -7.7150   -1.1100   -0.7160 hn        1 MOL      0.328149
     46 H18        -8.3520   -3.3220    0.5360 h1        1 MOL      0.056948
     47 H19        -6.7860   -3.6420    0.8280 h1        1 MOL      0.056948
     48 N5         -6.0490   -4.4490   -1.6310 n         1 MOL     -0.521718
     49 C16        -4.7300   -4.3260   -1.0070 c3        1 MOL     -0.034649
     50 C17        -4.6120   -5.2380    0.1720 c         1 MOL      0.617348
     51 O10        -4.8370   -6.4240    0.1980 o         1 MOL     -0.550963
     52 C18        -3.7130   -4.6460   -2.1390 c3        1 MOL     -0.155455
     53 C19        -2.3230   -4.2080   -1.7740 c         1 MOL      0.681583
     54 N6         -1.3640   -4.4400   -2.6470 n         1 MOL     -0.755705
     55 O11        -1.9970   -3.5530   -0.7910 o         1 MOL     -0.622214
     56 H20        -6.1400   -5.0140   -2.4610 hn        1 MOL      0.319196
     57 H21        -4.5310   -3.2960   -0.7180 h1        1 MOL      0.162894
     58 H22        -3.9170   -4.1520   -3.0850 hc        1 MOL      0.073896
     59 H23        -3.6650   -5.7250   -2.2940 hc        1 MOL      0.073896
     60 H24        -1.5200   -4.8010   -3.5790 hn        1 MOL      0.344242
     61 H25        -0.4010   -4.2290   -2.4610 hn        1 MOL      0.344242
     62 N7         -4.1000   -4.5780    1.2170 n         1 MOL     -0.300683
     63 C20        -3.7170   -5.2080    2.5420 c3        1 MOL     -0.359398
     64 C21        -2.2600   -5.6420    2.6560 c         1 MOL      0.622980
     65 O12        -1.9020   -6.4500    3.5210 o         1 MOL     -0.601278
     66 H26        -3.7600   -3.6370    1.0720 hn        1 MOL      0.233797
     67 H27        -4.2920   -6.1390    2.5650 h1        1 MOL      0.145528
     68 H28        -3.8540   -4.4410    3.3010 h1        1 MOL      0.145528
     69 N8         -1.4460   -5.0440    1.8370 n         1 MOL     -0.229932
     70 C22         0.0370   -5.2200    1.7830 c3        1 MOL     -0.053677
     71 C23         0.7660   -3.8840    1.7560 c         1 MOL      0.214269
     72 O13         0.2000   -2.8350    1.5210 o         1 MOL     -0.455813
     73 C24         0.5390   -6.2840    0.7820 c3        1 MOL      0.328909
     74 C25         0.0160   -7.6580    0.9680 c3        1 MOL     -0.394351
     75 O14         0.1190   -5.9750   -0.5020 oh        1 MOL     -0.686649
     76 H29        -1.9020   -4.4790    1.1360 hn        1 MOL      0.269283
     77 H30         0.2550   -5.6880    2.7500 h1        1 MOL      0.057742
     78 H31         1.6240   -6.2680    0.7450 h1        1 MOL      0.029293
     79 H32         0.7940   -5.4020   -0.8920 ho        1 MOL      0.516515
     80 H33         0.3660   -8.2980    0.1600 hc        1 MOL      0.098282
     81 H34         0.4170   -8.1310    1.8610 hc        1 MOL      0.098282
     82 H35        -1.0750   -7.7050    0.9840 hc        1 MOL      0.098282
     83 N9          2.0530   -3.9270    2.0780 n         1 MOL     -0.001884
     84 C26         3.0400   -2.8450    2.0160 c3        1 MOL      0.067974
     85 C27         3.8800   -3.0940    0.7520 c         1 MOL      0.108503
     86 O15         4.5440   -4.1250    0.6540 o         1 MOL     -0.517297
     87 C28         3.8220   -2.8260    3.3170 c3        1 MOL      0.143280
     88 C29         5.1030   -1.9530    3.2860 c3        1 MOL     -0.085849
     89 C30         2.9240   -2.6160    4.5830 c3        1 MOL     -0.293255
     90 C31         4.8940   -0.4440    3.1620 c3        1 MOL     -0.069296
     91 H36         2.4600   -4.7670    2.4310 hn        1 MOL      0.156413
     92 H37         2.4470   -1.9350    1.9080 h1        1 MOL      0.023490
     93 H38         4.1970   -3.8280    3.5170 hc        1 MOL     -0.009664
     94 H39         5.8190   -2.2400    2.5280 hc        1 MOL      0.025142
     95 H40         5.6330   -2.0440    4.2290 hc        1 MOL      0.025142
     96 H41         2.6160   -1.5680    4.6880 hc        1 MOL      0.069173
     97 H42         2.1360   -3.3530    4.7060 hc        1 MOL      0.069173
     98 H43         3.5560   -2.6920    5.4720 hc        1 MOL      0.069173
     99 H44         4.3530   -0.1490    4.0580 hc        1 MOL      0.018013
    100 H45         5.7770    0.2000    3.0970 hc        1 MOL      0.018013
    101 H46         4.2950   -0.2110    2.2780 hc        1 MOL      0.018013
    102 N10         3.7110   -2.2640   -0.2610 n         1 MOL      0.245173
    103 C32         4.3000   -2.6110   -1.6290 c3        1 MOL      0.021274
    104 C33         5.4060   -1.6790   -2.1750 c         1 MOL      0.580575
    105 O16         5.8800   -1.7590   -3.2920 o         1 MOL     -0.558883
    106 C34         3.1010   -2.7190   -2.5900 c3        1 MOL     -0.297044
    107 C35         2.0480   -3.5930   -1.8700 c         1 MOL      0.725603
    108 O17         2.2010   -4.8150   -1.6200 o         1 MOL     -0.718253
    109 O18         1.0080   -3.0770   -1.3900 o         1 MOL     -0.718253
    110 H47         3.1220   -1.4420   -0.1680 hn        1 MOL     -0.050573
    111 H48         4.7910   -3.5740   -1.4950 h1        1 MOL      0.088323
    112 H49         3.3950   -3.1220   -3.5550 hc        1 MOL      0.092582
    113 H50         2.6910   -1.7370   -2.7980 hc        1 MOL      0.092582
    114 N11         5.8730   -0.7850   -1.3090 n         1 MOL     -0.647386
    115 C36         6.9480    0.2650   -1.4930 c3        1 MOL      0.566101
    116 C37         6.6020    1.6050   -0.8380 c         1 MOL      0.213263
    117 O19         6.1830    1.5610    0.3230 o         1 MOL     -0.447807
    118 C38         8.3220   -0.2160   -0.9520 c3        1 MOL     -0.506563
    119 C39         9.3420    0.8540   -0.6610 ca        1 MOL      0.211258
    120 C40         9.5390    1.3190    0.6450 ca        1 MOL     -0.194002
    121 C41        10.1310    1.4030   -1.6520 ca        1 MOL     -0.194002
    122 C42        10.5160    2.2200    1.0010 ca        1 MOL     -0.093731
    123 C43        11.0920    2.3940   -1.3360 ca        1 MOL     -0.093731
    124 C44        11.2610    2.7710   -0.0160 ca        1 MOL     -0.123292
    125 H51         5.6240   -0.9010   -0.3360 hn        1 MOL      0.263590
    126 H52         7.0760    0.4510   -2.5540 h1        1 MOL     -0.037055
    127 H53         8.5740   -0.9650   -1.7160 hc        1 MOL      0.153934
    128 H54         8.0920   -0.7000    0.0040 hc        1 MOL      0.153934
    129 H55         8.9130    0.7820    1.3460 ha        1 MOL      0.116864
    130 H56         9.8780    1.0520   -2.6340 ha        1 MOL      0.116864
    131 H57        10.7270    2.4800    2.0310 ha        1 MOL      0.110447
    132 H58        11.6510    2.7920   -2.1600 ha        1 MOL      0.110447
    133 H59        12.1430    3.3440    0.2330 ha        1 MOL      0.095325
    134 N12         6.8430    2.7570   -1.4770 n         1 MOL      0.021875
    135 C45         6.9480    4.0600   -0.7290 c3        1 MOL     -0.279603
    136 C46         5.6630    4.6590   -0.1050 c         1 MOL      0.545737
    137 O20         5.6350    5.7670    0.4760 o         1 MOL     -0.546372
    138 C47         7.5770    4.9700   -1.7610 c3        1 MOL      0.040416
    139 C48         7.0240    4.5080   -3.1120 c3        1 MOL     -0.216125
    140 C49         6.9720    2.9900   -2.9070 c3        1 MOL      0.179682
    141 H60         7.6290    3.9090    0.1120 h1        1 MOL      0.148279
    142 H61         7.1910    5.9670   -1.5390 hc        1 MOL      0.030527
    143 H62         8.6500    5.1260   -1.7790 hc        1 MOL      0.030527
    144 H63         5.9860    4.8480   -3.2470 hc        1 MOL      0.079098
    145 H64         7.6210    4.7900   -3.9780 hc        1 MOL      0.079098
    146 H65         6.1080    2.6170   -3.4630 h1        1 MOL     -0.014090
    147 H66         7.8440    2.4670   -3.2910 h1        1 MOL     -0.014090
    148 N13         4.4840    3.9780   -0.1780 n         1 MOL     -0.202179
    149 C50         3.2800    4.3400    0.5770 c3        1 MOL     -0.391840
    150 C51         3.5100    4.6100    2.1040 c         1 MOL      0.720240
    151 O21         2.6980    5.3600    2.6030 o         1 MOL     -0.576429
    152 C52         2.2190    3.2180    0.3110 c3        1 MOL     -0.081916
    153 C53         2.7670    1.8680    0.8240 c3        1 MOL      0.050519
    154 C54         1.7550    0.6740    0.6280 c         1 MOL      0.848409
    155 O22         1.7890   -0.0780   -0.3750 o         1 MOL     -0.783815
    156 O23         0.7830    0.3810    1.3930 o         1 MOL     -0.783815
    157 H67         4.5330    2.9970   -0.4200 hn        1 MOL      0.157533
    158 H68         2.8880    5.2420    0.1030 h1        1 MOL      0.183080
    159 H69         1.9950    2.9760   -0.7240 hc        1 MOL      0.088056
    160 H70         1.2280    3.4380    0.7230 hc        1 MOL      0.088056
    161 H71         3.0630    2.0750    1.8470 hc        1 MOL     -0.055703
    162 H72         3.6810    1.7110    0.2550 hc        1 MOL     -0.055703
    163 N14         4.5810    4.1860    2.7340 n         1 MOL     -0.194672
    164 C55         4.9370    4.6270    4.0840 c3        1 MOL     -0.329620
    165 H73         4.3660    4.0540    4.8150 h1        1 MOL      0.122498
    166 H74         6.0020    4.4670    4.2510 h1        1 MOL      0.122498
    167 H75         4.7060    5.6870    4.1930 h1        1 MOL      0.122498
    168 H76         5.2620    3.5900    2.2690 hn        1 MOL      0.217695
    169 Ca1        -0.5080   -1.2370   -0.3760 Ca        1 MOL      1.768531
    170 O24        -0.6860    1.7890   -0.8500 oh        1 MOL     -0.863849
    171 H77        -1.1960    1.7390   -1.6640 ho        1 MOL      0.408241
    172 H78        -1.1990    2.3790   -0.2860 ho        1 MOL      0.408241
    173 O25        -2.3570   -1.5520    1.4410 oh        1 MOL     -0.863849
    174 H79        -3.2600   -1.3440    1.1880 ho        1 MOL      0.408241
    175 H80        -2.1660   -0.9380    2.1510 ho        1 MOL      0.408241
    176 O26        -0.5900   -0.4990   -3.1840 oh        1 MOL     -0.863849
    177 H81        -1.5420   -0.4280   -3.2210 ho        1 MOL      0.408241
    178 H82        -0.2720   -0.1180   -4.0020 ho        1 MOL      0.408241
@<TRIPOS>BOND
     1    1    2 1   
     2    1    4 1   
     3    1    5 1   
     4    1    6 1   
     5    2    3 2   
     6    2    7 1   
     7    7    8 1   
     8    7   15 1   
     9    8    9 1   
    10    8   11 1   
    11    8   16 1   
    12    9   10 2   
    13    9   19 1   
    14   11   12 1   
    15   11   17 1   
    16   11   18 1   
    17   12   13 1   
    18   12   14 1   
    19   19   20 1   
    20   19   24 1   
    21   20   21 1   
    22   20   23 1   
    23   20   25 1   
    24   21   22 2   
    25   21   29 1   
    26   23   26 1   
    27   23   27 1   
    28   23   28 1   
    29   29   30 1   
    30   29   37 1   
    31   30   31 1   
    32   30   33 1   
    33   30   38 1   
    34   31   32 2   
    35   31   41 1   
    36   33   34 1   
    37   33   39 1   
    38   33   40 1   
    39   34   35 1   
    40   34   36 1   
    41   41   42 1   
    42   41   45 1   
    43   42   43 1   
    44   42   46 1   
    45   42   47 1   
    46   43   44 2   
    47   43   48 1   
    48   48   49 1   
    49   48   56 1   
    50   49   50 1   
    51   49   52 1   
    52   49   57 1   
    53   50   51 2   
    54   50   62 1   
    55   52   53 1   
    56   52   58 1   
    57   52   59 1   
    58   53   54 1   
    59   53   55 2   
    60   54   60 1   
    61   54   61 1   
    62   62   63 1   
    63   62   66 1   
    64   63   64 1   
    65   63   67 1   
    66   63   68 1   
    67   64   65 2   
    68   64   69 1   
    69   69   70 1   
    70   69   76 1   
    71   70   71 1   
    72   70   73 1   
    73   70   77 1   
    74   71   72 2   
    75   71   83 1   
    76   73   74 1   
    77   73   75 1   
    78   73   78 1   
    79   74   80 1   
    80   74   81 1   
    81   74   82 1   
    82   75   79 1   
    83   83   84 1   
    84   83   91 1   
    85   84   85 1   
    86   84   87 1   
    87   84   92 1   
    88   85   86 2   
    89   85  102 1   
    90   87   88 1   
    91   87   89 1   
    92   87   93 1   
    93   88   90 1   
    94   88   94 1   
    95   88   95 1   
    96   89   96 1   
    97   89   97 1   
    98   89   98 1   
    99   90   99 1   
   100   90  100 1   
   101   90  101 1   
   102  102  103 1   
   103  102  110 1   
   104  103  104 1   
   105  103  106 1   
   106  103  111 1   
   107  104  105 2   
   108  104  114 1   
   109  106  107 1   
   110  106  112 1   
   111  106  113 1   
   112  107  108 1   
   113  107  109 1   
   114  114  115 1   
   115  114  125 1   
   116  115  116 1   
   117  115  118 1   
   118  115  126 1   
   119  116  117 2   
   120  116  134 1   
   121  118  119 1   
   122  118  127 1   
   123  118  128 1   
   124  119  120 ar  
   125  119  121 ar  
   126  120  122 ar  
   127  120  129 1   
   128  121  123 ar  
   129  121  130 1   
   130  122  124 ar  
   131  122  131 1   
   132  123  124 ar  
   133  123  132 1   
   134  124  133 1   
   135  134  135 1   
   136  134  140 1   
   137  135  136 1   
   138  135  138 1   
   139  135  141 1   
   140  136  137 2   
   141  136  148 1   
   142  138  139 1   
   143  138  142 1   
   144  138  143 1   
   145  139  140 1   
   146  139  144 1   
   147  139  145 1   
   148  140  146 1   
   149  140  147 1   
   150  148  149 1   
   151  148  157 1   
   152  149  150 1   
   153  149  152 1   
   154  149  158 1   
   155  150  151 2   
   156  150  163 1   
   157  152  153 1   
   158  152  159 1   
   159  152  160 1   
   160  153  154 1   
   161  153  161 1   
   162  153  162 1   
   163  154  155 1   
   164  154  156 1   
   165  163  164 1   
   166  163  168 1   
   167  164  165 1   
   168  164  166 1   
   169  164  167 1   
   170  170  171 1   
   171  170  172 1   
   172  173  174 1   
   173  173  175 1   
   174  176  177 1   
   175  176  178 1   
@<TRIPOS>SUBSTRUCTURE
     1 MOL         1 TEMP              0 ****  ****    0 ROOT
