@<TRIPOS>MOLECULE
MOL
  189   185     1     0     0
SMALL
resp


@<TRIPOS>ATOM
      1 C1          4.5900    4.4890   -3.4480 c3        1 MOL     -0.342112
      2 C2          5.0560    3.4610   -2.4650 c         1 MOL      0.882745
      3 O1          4.4600    3.2370   -1.4020 o         1 MOL     -0.696702
      4 H1          3.6190    4.8730   -3.1380 hc        1 MOL      0.081597
      5 H2          5.3090    5.3080   -3.4870 hc        1 MOL      0.081597
      6 H3          4.5020    4.0350   -4.4360 hc        1 MOL      0.081597
      7 N1          6.2470    2.9200   -2.7520 n         1 MOL     -0.718681
      8 C3          7.0200    1.8700   -2.1120 c3        1 MOL      0.196450
      9 C4          6.0100    0.7480   -1.7670 c         1 MOL      0.569261
     10 O2          5.6550    0.4250   -0.6430 o         1 MOL     -0.687829
     11 C5          7.9330    2.3080   -0.9490 c3        1 MOL     -0.070954
     12 C6          7.4150    3.4560   -0.0730 c         1 MOL      0.731208
     13 O3          6.5180    3.3510    0.8040 o         1 MOL     -0.729931
     14 O4          7.9010    4.5660   -0.3270 o         1 MOL     -0.729931
     15 H4          6.6690    3.3010   -3.5990 hn        1 MOL      0.315387
     16 H5          7.6370    1.4660   -2.9110 h1        1 MOL      0.043376
     17 H6          8.9070    2.6560   -1.3000 hc        1 MOL      0.010111
     18 H7          8.1900    1.3930   -0.4260 hc        1 MOL      0.010111
     19 N2          5.6850   -0.0190   -2.8430 n         1 MOL     -0.642593
     20 C7          4.8840   -1.2480   -2.8760 c3        1 MOL      0.262913
     21 C8          5.4990   -2.4990   -2.2510 c         1 MOL      0.398335
     22 O5          5.7340   -3.4260   -2.9890 o         1 MOL     -0.551729
     23 C9          3.3750   -1.1560   -2.4610 c3        1 MOL      0.150021
     24 C10         2.3960   -2.2760   -2.8720 c3        1 MOL      0.079657
     25 C11         2.8110    0.1560   -3.1150 c3        1 MOL     -0.341251
     26 C12         2.4980   -2.7830   -4.3470 c3        1 MOL     -0.306499
     27 H8          6.1770    0.2550   -3.6920 hn        1 MOL      0.310647
     28 H9          4.8560   -1.4540   -3.9460 h1        1 MOL      0.021757
     29 H10         3.3480   -1.0130   -1.3820 hc        1 MOL     -0.068567
     30 H11         1.3980   -2.1410   -2.4730 hc        1 MOL      0.035441
     31 H12         2.7090   -3.1450   -2.2880 hc        1 MOL      0.035441
     32 H13         1.7290    0.1630   -2.9480 hc        1 MOL      0.065980
     33 H14         3.3450    1.0130   -2.7010 hc        1 MOL      0.065980
     34 H15         2.8060    0.1310   -4.2050 hc        1 MOL      0.065980
     35 H16         1.9400   -3.7240   -4.3430 hc        1 MOL      0.055508
     36 H17         2.0480   -2.1460   -5.1050 hc        1 MOL      0.055508
     37 H18         3.5550   -2.8740   -4.5910 hc        1 MOL      0.055508
     38 N3          5.8260   -2.3660   -0.9760 n         1 MOL     -0.124602
     39 C13         6.5320   -3.4400   -0.3160 c3        1 MOL      0.002813
     40 C14         5.6530   -4.7100   -0.1400 c         1 MOL      0.539164
     41 O6          6.0770   -5.7770   -0.5740 o         1 MOL     -0.590241
     42 C15         7.3120   -2.9360    0.9370 c3        1 MOL     -0.192449
     43 C16         8.1710   -1.7380    0.7240 c         1 MOL      0.812986
     44 O7          8.7270   -1.5600   -0.3660 o         1 MOL     -0.731867
     45 O8          8.4700   -1.0330    1.7230 o         1 MOL     -0.731867
     46 H19         5.7160   -1.4740   -0.5120 hn        1 MOL      0.241298
     47 H20         7.3310   -3.8060   -0.9670 h1        1 MOL      0.048965
     48 H21         7.9500   -3.7030    1.3810 hc        1 MOL      0.033519
     49 H22         6.5830   -2.6940    1.7150 hc        1 MOL      0.033519
     50 N4          4.5070   -4.7780    0.5150 n         1 MOL     -0.507878
     51 C17         3.7020   -3.7010    0.9790 c3        1 MOL      0.392787
     52 C18         2.5750   -4.1300    1.9700 c         1 MOL      0.482056
     53 O9          2.1110   -5.2770    1.7970 o         1 MOL     -0.580006
     54 H23         4.1430   -5.6930    0.7440 hn        1 MOL      0.287197
     55 H24         3.3450   -3.1440    0.1200 h1        1 MOL     -0.084203
     56 H25         4.3630   -3.0250    1.5270 h1        1 MOL     -0.084203
     57 N5          2.0250   -3.3600    2.8910 n         1 MOL     -0.480173
     58 C19         2.3380   -1.9870    3.2690 c3        1 MOL      0.227472
     59 C20         2.3940   -0.9430    2.1210 c         1 MOL      0.312990
     60 O10         3.4100   -0.2800    1.8320 o         1 MOL     -0.509991
     61 C21         3.6000   -1.9590    4.2150 c3        1 MOL     -0.380654
     62 C22         3.9840   -0.5550    4.6850 c         1 MOL      0.804929
     63 O11         3.1570    0.1610    5.2780 o         1 MOL     -0.723784
     64 O12         5.1590   -0.1770    4.3440 o         1 MOL     -0.723784
     65 H26         1.2390   -3.7750    3.3710 hn        1 MOL      0.298197
     66 H27         1.4780   -1.6270    3.8470 h1        1 MOL      0.044136
     67 H28         4.3840   -2.3190    3.5390 hc        1 MOL      0.081058
     68 H29         3.4560   -2.6430    5.0460 hc        1 MOL      0.081058
     69 N6          1.3800   -0.7800    1.2460 n         1 MOL     -0.115087
     70 C23        -0.0230   -1.3420    1.3810 c3        1 MOL     -0.253025
     71 C24        -0.2580   -2.5210    0.5360 c         1 MOL      0.664253
     72 O13         0.6720   -3.0510   -0.0740 o         1 MOL     -0.553325
     73 H30         1.4490   -0.0480    0.5580 hn        1 MOL      0.238646
     74 H31        -0.7340   -0.6350    0.9570 h1        1 MOL      0.078744
     75 H32        -0.3040   -1.6810    2.3780 h1        1 MOL      0.078744
     76 N7         -1.5370   -2.8380    0.4140 n         1 MOL     -0.444905
     77 C25        -2.0570   -4.1140   -0.2150 c3        1 MOL      0.150728
     78 C26        -2.9370   -3.9900   -1.5120 c         1 MOL      0.305076
     79 O14        -3.2340   -5.0140   -2.0590 o         1 MOL     -0.483668
     80 C27        -2.7060   -5.0190    0.8450 c3        1 MOL      0.088271
     81 C28        -1.9480   -5.0370    2.1370 c3        1 MOL     -0.021197
     82 C29        -2.1910   -6.3060    2.9820 c         1 MOL      0.712817
     83 N8         -3.1620   -6.3440    3.8140 n         1 MOL     -0.818636
     84 O15        -1.5650   -7.3030    2.8620 o         1 MOL     -0.553065
     85 H33        -2.2300   -2.1390    0.6640 hn        1 MOL      0.244715
     86 H34        -1.1430   -4.6230   -0.5070 h1        1 MOL      0.110940
     87 H35        -2.6610   -6.0270    0.4220 hc        1 MOL     -0.048093
     88 H36        -3.7520   -4.7350    0.9350 hc        1 MOL     -0.048093
     89 H37        -2.3370   -4.1790    2.6840 hc        1 MOL     -0.041513
     90 H38        -0.8870   -4.8250    2.0260 hc        1 MOL     -0.041513
     91 H39        -3.8110   -5.5840    3.9160 hn        1 MOL      0.356337
     92 H40        -3.3030   -7.1780    4.3710 hn        1 MOL      0.356337
     93 N9         -3.2520   -2.7750   -1.9080 n         1 MOL     -0.224212
     94 C30        -3.7390   -2.3840   -3.2060 c3        1 MOL     -0.264762
     95 C31        -5.1280   -1.7600   -3.3160 c         1 MOL      0.473819
     96 O16        -5.5540   -1.3430   -4.3890 o         1 MOL     -0.504335
     97 C32        -2.6840   -1.4770   -3.8470 c3        1 MOL      0.232197
     98 C33        -1.6260   -2.3750   -4.4210 c3        1 MOL     -0.271700
     99 C34        -1.9880   -0.4660   -3.0020 c3        1 MOL     -0.271700
    100 H41        -2.9220   -2.0360   -1.2970 hn        1 MOL      0.215452
    101 H42        -3.8280   -3.2300   -3.8920 h1        1 MOL      0.179104
    102 H43        -3.0900   -0.9810   -4.7350 hc        1 MOL      0.008974
    103 H44        -0.9830   -1.8320   -5.1180 hc        1 MOL      0.074540
    104 H45        -0.9810   -2.6960   -3.6040 hc        1 MOL      0.074540
    105 H46        -2.0860   -3.2100   -4.9380 hc        1 MOL      0.074540
    106 H47        -1.4520   -1.0390   -2.2440 hc        1 MOL      0.074540
    107 H48        -1.2880    0.0260   -3.6850 hc        1 MOL      0.074540
    108 H49        -2.5440    0.3630   -2.5740 hc        1 MOL      0.074540
    109 N10        -5.7560   -1.6310   -2.1250 n         1 MOL     -0.245444
    110 C35        -7.0910   -1.0370   -1.9620 c3        1 MOL      0.056569
    111 C36        -7.0910    0.3500   -1.3520 c         1 MOL      0.599031
    112 O17        -7.9860    1.1420   -1.5990 o         1 MOL     -0.539738
    113 C37        -7.9540   -1.9750   -1.1320 c3        1 MOL     -0.320558
    114 C38        -8.2380   -3.3060   -1.8440 c         1 MOL      0.675713
    115 N11        -7.7840   -4.3780   -1.3850 n         1 MOL     -0.737841
    116 O18        -9.0880   -3.2850   -2.7880 o         1 MOL     -0.586219
    117 H50        -5.2390   -1.8400   -1.2810 hn        1 MOL      0.191382
    118 H51        -7.5700   -0.8960   -2.9320 h1        1 MOL      0.091278
    119 H52        -8.8700   -1.4570   -0.8450 hc        1 MOL      0.098564
    120 H53        -7.5160   -2.2600   -0.1770 hc        1 MOL      0.098564
    121 H54        -7.1210   -4.4210   -0.6220 hn        1 MOL      0.358199
    122 H55        -8.0710   -5.2630   -1.7820 hn        1 MOL      0.358199
    123 N12        -6.0290    0.6250   -0.5850 n         1 MOL     -0.687182
    124 C39        -6.0040    1.8300    0.2870 c3        1 MOL      0.632614
    125 C40        -4.6890    2.6390    0.2570 c         1 MOL      0.248051
    126 O19        -3.6800    2.0990   -0.0950 o         1 MOL     -0.431716
    127 C41        -6.3740    1.4490    1.6940 c3        1 MOL     -0.119581
    128 C42        -7.8540    1.0540    1.8160 ca        1 MOL      0.116903
    129 C43        -8.1150   -0.2880    2.2260 ca        1 MOL     -0.257751
    130 C44        -8.9170    1.9490    1.5930 ca        1 MOL     -0.257751
    131 C45        -9.4700   -0.7690    2.2470 ca        1 MOL     -0.141629
    132 C46       -10.2530    1.4710    1.7520 ca        1 MOL     -0.141629
    133 C47       -10.5460    0.1710    2.1030 ca        1 MOL      0.218149
    134 O20       -11.9080   -0.1920    2.1470 oh        1 MOL     -0.538404
    135 H56        -5.2550   -0.0320   -0.6090 hn        1 MOL      0.262474
    136 H57        -6.7360    2.5160   -0.1460 h1        1 MOL     -0.043427
    137 H58        -6.3160    2.3620    2.2830 hc        1 MOL      0.027832
    138 H59        -5.6420    0.7680    2.1360 hc        1 MOL      0.027832
    139 H60        -7.3030   -0.9740    2.3800 ha        1 MOL      0.142252
    140 H61        -8.6880    2.9610    1.3290 ha        1 MOL      0.142252
    141 H62        -9.6790   -1.7700    2.5840 ha        1 MOL      0.112642
    142 H63       -11.0930    2.1260    1.5950 ha        1 MOL      0.112642
    143 H64       -12.5650    0.5110    2.1550 ho        1 MOL      0.389012
    144 N13        -4.7310    3.8470    0.8170 n         1 MOL     -0.523475
    145 C48        -3.6730    4.7820    1.2510 c3        1 MOL      0.304703
    146 C49        -2.5760    5.0630    0.1770 c         1 MOL      0.236111
    147 O21        -2.3120    6.2500   -0.0200 o         1 MOL     -0.520768
    148 C50        -3.1350    4.3030    2.5630 c3        1 MOL     -0.198891
    149 C51        -2.1560    5.3910    3.0990 c3        1 MOL     -0.392651
    150 C52        -1.8780    5.0430    4.5900 c         1 MOL      0.743898
    151 O22        -1.1260    4.1010    4.9430 o         1 MOL     -0.710201
    152 O23        -2.4000    5.7870    5.4780 o         1 MOL     -0.710201
    153 H65        -5.6350    4.2300    1.0320 hn        1 MOL      0.270017
    154 H66        -4.0810    5.7810    1.4080 h1        1 MOL      0.038172
    155 H67        -2.6340    3.3340    2.5080 hc        1 MOL      0.090871
    156 H68        -3.9560    4.2260    3.2860 hc        1 MOL      0.090871
    157 H69        -2.5930    6.3810    3.0530 hc        1 MOL      0.117852
    158 H70        -1.1970    5.3730    2.5730 hc        1 MOL      0.117852
    159 N14        -2.0230    4.0720   -0.5040 n         1 MOL     -0.200560
    160 C53        -0.8260    4.2310   -1.4540 c3        1 MOL     -0.096288
    161 C54        -1.1510    5.0510   -2.7710 c         1 MOL      0.440642
    162 O24        -0.2560    5.3840   -3.5990 o         1 MOL     -0.536026
    163 C55        -0.4170    2.8000   -1.9230 c3        1 MOL      0.020522
    164 C56        -0.0580    1.7450   -0.8540 c3        1 MOL      0.380376
    165 C57         1.0010    2.1980    0.1330 c         1 MOL      0.464353
    166 O25         2.0880    1.7120   -0.0710 o         1 MOL     -0.606056
    167 O26         0.7620    2.9370    1.1500 o         1 MOL     -0.606056
    168 H71        -2.4110    3.1610   -0.2990 hn        1 MOL      0.233985
    169 H72         0.0660    4.5960   -0.9620 h1        1 MOL      0.163856
    170 H73         0.4550    2.8880   -2.5640 hc        1 MOL     -0.028207
    171 H74        -1.2210    2.3950   -2.5290 hc        1 MOL     -0.028207
    172 H75         0.2600    0.8100   -1.3120 hc        1 MOL     -0.150684
    173 H76        -0.9430    1.4670   -0.2720 hc        1 MOL     -0.150684
    174 N15        -2.4320    5.3400   -3.0390 n         1 MOL     -0.183596
    175 C58        -2.9830    6.1930   -4.1540 c3        1 MOL     -0.309565
    176 H77        -3.9750    6.5520   -3.8800 h1        1 MOL      0.121841
    177 H78        -2.3220    7.0440   -4.3220 h1        1 MOL      0.121841
    178 H79        -3.0510    5.5990   -5.0650 h1        1 MOL      0.121841
    179 H80        -3.1050    4.9100   -2.4190 hn        1 MOL      0.223747
    180 Ca1         4.3450    2.0640    1.0710 Ca        1 MOL      1.768989
    181 O27         2.7320    2.0860    3.1600 oh        1 MOL     -0.837029
    182 H81         2.9110    1.6070    3.9650 ho        1 MOL      0.407038
    183 H82         1.7990    1.9400    3.0080 ho        1 MOL      0.407038
    184 O28         6.4710    0.6910    2.0390 oh        1 MOL     -0.837029
    185 H83         7.1440    0.1250    1.6630 ho        1 MOL      0.407038
    186 H84         6.2120    0.2610    2.8550 ho        1 MOL      0.407038
    187 O29         4.0630    4.8600    1.6230 oh        1 MOL     -0.837029
    188 H85         3.2190    5.2980    1.5170 ho        1 MOL      0.407038
    189 H86         4.6710    5.3760    1.0860 ho        1 MOL      0.407038
@<TRIPOS>BOND
     1    1    2 1   
     2    1    4 1   
     3    1    5 1   
     4    1    6 1   
     5    2    3 2   
     6    2    7 1   
     7    7    8 1   
     8    7   15 1   
     9    8    9 1   
    10    8   11 1   
    11    8   16 1   
    12    9   10 2   
    13    9   19 1   
    14   11   12 1   
    15   11   17 1   
    16   11   18 1   
    17   12   13 1   
    18   12   14 1   
    19   19   20 1   
    20   19   27 1   
    21   20   21 1   
    22   20   23 1   
    23   20   28 1   
    24   21   22 2   
    25   21   38 1   
    26   23   24 1   
    27   23   25 1   
    28   23   29 1   
    29   24   26 1   
    30   24   30 1   
    31   24   31 1   
    32   25   32 1   
    33   25   33 1   
    34   25   34 1   
    35   26   35 1   
    36   26   36 1   
    37   26   37 1   
    38   38   39 1   
    39   38   46 1   
    40   39   40 1   
    41   39   42 1   
    42   39   47 1   
    43   40   41 2   
    44   40   50 1   
    45   42   43 1   
    46   42   48 1   
    47   42   49 1   
    48   43   44 1   
    49   43   45 1   
    50   50   51 1   
    51   50   54 1   
    52   51   52 1   
    53   51   55 1   
    54   51   56 1   
    55   52   53 2   
    56   52   57 1   
    57   57   58 1   
    58   57   65 1   
    59   58   59 1   
    60   58   61 1   
    61   58   66 1   
    62   59   60 2   
    63   59   69 1   
    64   61   62 1   
    65   61   67 1   
    66   61   68 1   
    67   62   63 1   
    68   62   64 1   
    69   69   70 1   
    70   69   73 1   
    71   70   71 1   
    72   70   74 1   
    73   70   75 1   
    74   71   72 2   
    75   71   76 1   
    76   76   77 1   
    77   76   85 1   
    78   77   78 1   
    79   77   80 1   
    80   77   86 1   
    81   78   79 2   
    82   78   93 1   
    83   80   81 1   
    84   80   87 1   
    85   80   88 1   
    86   81   82 1   
    87   81   89 1   
    88   81   90 1   
    89   82   83 1   
    90   82   84 2   
    91   83   91 1   
    92   83   92 1   
    93   93   94 1   
    94   93  100 1   
    95   94   95 1   
    96   94   97 1   
    97   94  101 1   
    98   95   96 2   
    99   95  109 1   
   100   97   98 1   
   101   97   99 1   
   102   97  102 1   
   103   98  103 1   
   104   98  104 1   
   105   98  105 1   
   106   99  106 1   
   107   99  107 1   
   108   99  108 1   
   109  109  110 1   
   110  109  117 1   
   111  110  111 1   
   112  110  113 1   
   113  110  118 1   
   114  111  112 2   
   115  111  123 1   
   116  113  114 1   
   117  113  119 1   
   118  113  120 1   
   119  114  115 1   
   120  114  116 2   
   121  115  121 1   
   122  115  122 1   
   123  123  124 1   
   124  123  135 1   
   125  124  125 1   
   126  124  127 1   
   127  124  136 1   
   128  125  126 2   
   129  125  144 1   
   130  127  128 1   
   131  127  137 1   
   132  127  138 1   
   133  128  129 ar  
   134  128  130 ar  
   135  129  131 ar  
   136  129  139 1   
   137  130  132 ar  
   138  130  140 1   
   139  131  133 ar  
   140  131  141 1   
   141  132  133 ar  
   142  132  142 1   
   143  133  134 1   
   144  134  143 1   
   145  144  145 1   
   146  144  153 1   
   147  145  146 1   
   148  145  148 1   
   149  145  154 1   
   150  146  147 2   
   151  146  159 1   
   152  148  149 1   
   153  148  155 1   
   154  148  156 1   
   155  149  150 1   
   156  149  157 1   
   157  149  158 1   
   158  150  151 1   
   159  150  152 1   
   160  159  160 1   
   161  159  168 1   
   162  160  161 1   
   163  160  163 1   
   164  160  169 1   
   165  161  162 2   
   166  161  174 1   
   167  163  164 1   
   168  163  170 1   
   169  163  171 1   
   170  164  165 1   
   171  164  172 1   
   172  164  173 1   
   173  165  166 1   
   174  165  167 1   
   175  174  175 1   
   176  174  179 1   
   177  175  176 1   
   178  175  177 1   
   179  175  178 1   
   180  181  182 1   
   181  181  183 1   
   182  184  185 1   
   183  184  186 1   
   184  187  188 1   
   185  187  189 1   
@<TRIPOS>SUBSTRUCTURE
     1 MOL         1 TEMP              0 ****  ****    0 ROOT
