@<TRIPOS>MOLECULE
MOL
  192   187     1     0     0
SMALL
resp


@<TRIPOS>ATOM
      1 C1          4.0890    4.4860   -3.5410 c3        1 MOL     -0.405055
      2 C2          4.8170    3.7500   -2.4300 c         1 MOL      0.686650
      3 O1          4.1950    3.3410   -1.4200 o         1 MOL     -0.626286
      4 H1          4.1970    5.5620   -3.3960 hc        1 MOL      0.110697
      5 H2          4.5150    4.2060   -4.5040 hc        1 MOL      0.110697
      6 H3          3.0320    4.2220   -3.5200 hc        1 MOL      0.110697
      7 N1          6.1000    3.4100   -2.7460 n         1 MOL     -0.569949
      8 C3          6.8820    2.2500   -2.1330 c3        1 MOL      0.293431
      9 C4          5.9460    1.0710   -1.8120 c         1 MOL      0.233515
     10 O2          5.6590    0.7040   -0.6550 o         1 MOL     -0.577094
     11 C5          7.8760    2.6440   -0.9740 c3        1 MOL     -0.141635
     12 C6          7.4830    3.7640    0.0800 c         1 MOL      0.559262
     13 O3          6.4080    3.6800    0.7480 o         1 MOL     -0.647258
     14 O4          8.3060    4.7320    0.2720 o         1 MOL     -0.647258
     15 H4          6.3900    3.7000   -3.6670 hn        1 MOL      0.307369
     16 H5          7.5950    1.9850   -2.9240 h1        1 MOL      0.019992
     17 H6          8.7310    3.0750   -1.4980 hc        1 MOL      0.024109
     18 H7          8.1980    1.6900   -0.5630 hc        1 MOL      0.024109
     19 N2          5.4840    0.4760   -2.9240 n         1 MOL     -0.366950
     20 C7          4.8040   -0.7610   -3.2020 c3        1 MOL      0.040186
     21 C8          5.5270   -2.0190   -2.7130 c         1 MOL      0.282729
     22 O5          5.6320   -3.0000   -3.4670 o         1 MOL     -0.538044
     23 C9          3.3410   -0.7950   -2.7410 c3        1 MOL      0.162821
     24 C10         2.4670   -1.9730   -3.1720 c3        1 MOL     -0.355909
     25 C11         2.7710    0.5360   -3.3180 c3        1 MOL     -0.018258
     26 C12         2.3250   -2.1870   -4.7220 c3        1 MOL     -0.115391
     27 H8          5.7760    0.9760   -3.7480 hn        1 MOL      0.252439
     28 H9          4.8270   -0.8190   -4.2950 h1        1 MOL      0.080210
     29 H10         3.2340   -0.6410   -1.6710 hc        1 MOL      0.016370
     30 H11         1.4250   -1.8250   -2.8590 hc        1 MOL      0.166382
     31 H12         2.7900   -2.9430   -2.8010 hc        1 MOL      0.166382
     32 H13         3.0250    0.6990   -4.3660 hc        1 MOL     -0.006371
     33 H14         1.6760    0.5150   -3.2640 hc        1 MOL     -0.006371
     34 H15         3.1830    1.3570   -2.7330 hc        1 MOL     -0.006371
     35 H16         1.9060   -1.2610   -5.1140 hc        1 MOL      0.029158
     36 H17         3.2480   -2.3950   -5.2630 hc        1 MOL      0.029158
     37 H18         1.6230   -2.9970   -4.9400 hc        1 MOL      0.029158
     38 N3          6.0650   -2.0540   -1.4830 n         1 MOL     -0.074495
     39 C13         7.0370   -2.9320   -0.7820 c3        1 MOL     -0.013895
     40 C14         6.3780   -4.3040   -0.2940 c         1 MOL      0.383898
     41 O6          7.0240   -5.3780   -0.4380 o         1 MOL     -0.543623
     42 C15         7.5850   -2.1860    0.4040 c3        1 MOL     -0.474266
     43 C16         8.5870   -3.0680    1.1450 c         1 MOL      0.819586
     44 O7          8.3690   -3.3190    2.3300 o         1 MOL     -0.731050
     45 O8          9.6560   -3.3590    0.6220 o         1 MOL     -0.731050
     46 H19         5.6940   -1.3020   -0.9200 hn        1 MOL      0.319531
     47 H20         7.8720   -3.2210   -1.4190 h1        1 MOL      0.073919
     48 H21         6.7770   -1.8370    1.0530 hc        1 MOL      0.150996
     49 H22         8.0710   -1.2860    0.0400 hc        1 MOL      0.150996
     50 N4          5.2420   -4.3880    0.3390 n         1 MOL     -0.220109
     51 C17         4.1400   -3.4270    0.6400 c3        1 MOL      0.023604
     52 C18         3.1070   -4.1650    1.5420 c         1 MOL      0.691907
     53 O9          2.8690   -5.3690    1.4880 o         1 MOL     -0.619573
     54 H23         4.9510   -5.3220    0.5860 hn        1 MOL      0.226089
     55 H24         3.5540   -3.1730   -0.2460 h1        1 MOL     -0.020945
     56 H25         4.5970   -2.5900    1.1830 h1        1 MOL     -0.020945
     57 N5          2.5010   -3.4370    2.4840 n         1 MOL     -0.247464
     58 C19         2.5300   -1.9970    2.7370 c3        1 MOL     -0.261651
     59 C20         2.3930   -1.0610    1.4880 c         1 MOL      0.567585
     60 O10         3.3700   -0.3860    1.1030 o         1 MOL     -0.575778
     61 C21         3.6950   -1.5640    3.6530 c3        1 MOL     -0.354244
     62 C22         3.9690   -2.5750    4.7700 c         1 MOL      0.682008
     63 O11         5.0950   -3.1130    4.6870 o         1 MOL     -0.703490
     64 O12         3.1600   -2.8760    5.7170 o         1 MOL     -0.703490
     65 H26         1.7970   -3.9920    2.9690 hn        1 MOL      0.236753
     66 H27         1.6370   -1.7340    3.3200 h1        1 MOL      0.130757
     67 H28         3.5580   -0.6000    4.1490 hc        1 MOL      0.126191
     68 H29         4.5600   -1.5280    2.9900 hc        1 MOL      0.126191
     69 N6          1.2610   -1.0680    0.7860 n         1 MOL     -0.269227
     70 C23        -0.0830   -1.5180    1.2610 c3        1 MOL     -0.028899
     71 C24        -0.6270   -2.6560    0.4160 c         1 MOL      0.481017
     72 O13        -0.0070   -3.0150   -0.5750 o         1 MOL     -0.547901
     73 H30         1.3170   -0.4350    0.0000 hn        1 MOL      0.181168
     74 H31        -0.8190   -0.7170    1.3670 h1        1 MOL      0.035392
     75 H32         0.0140   -2.0390    2.2150 h1        1 MOL      0.035392
     76 N7         -1.7760   -3.1320    0.8050 n         1 MOL     -0.345895
     77 C25        -2.3790   -4.2620    0.1020 c3        1 MOL      0.000539
     78 C26        -3.0630   -4.0240   -1.2210 c         1 MOL      0.395615
     79 O14        -3.3390   -5.0100   -1.8620 o         1 MOL     -0.535876
     80 C27        -3.0270   -5.2090    1.1610 c3        1 MOL     -0.114791
     81 C28        -4.1610   -4.7220    1.9960 c3        1 MOL     -0.133994
     82 C29        -5.2980   -4.3020    1.0920 c         1 MOL      0.476382
     83 N8         -6.0590   -5.2500    0.6030 n         1 MOL     -0.530312
     84 O15        -5.4440   -3.1720    0.6640 o         1 MOL     -0.549474
     85 H33        -2.3350   -2.7130    1.5320 hn        1 MOL      0.301703
     86 H34        -1.5440   -4.9240   -0.1280 h1        1 MOL      0.153339
     87 H35        -2.2180   -5.5000    1.8260 hc        1 MOL      0.053046
     88 H36        -3.3630   -6.0940    0.6110 hc        1 MOL      0.053046
     89 H37        -3.8610   -3.8020    2.4930 hc        1 MOL      0.065469
     90 H38        -4.5480   -5.4130    2.7400 hc        1 MOL      0.065469
     91 H39        -6.1240   -6.1460    1.0610 hn        1 MOL      0.278672
     92 H40        -6.8740   -4.8880    0.1280 hn        1 MOL      0.278672
     93 N9         -3.2780   -2.8240   -1.6640 n         1 MOL     -0.126336
     94 C30        -3.6680   -2.5490   -3.1600 c3        1 MOL     -0.083607
     95 C31        -5.1470   -2.1760   -3.3290 c         1 MOL      0.468913
     96 O16        -5.7080   -2.3520   -4.4320 o         1 MOL     -0.559688
     97 C32        -2.7810   -1.3690   -3.6230 c3        1 MOL      0.198921
     98 C33        -1.2800   -1.7320   -3.5570 c3        1 MOL     -0.210210
     99 C34        -3.0080    0.0300   -3.0280 c3        1 MOL     -0.210210
    100 H41        -3.0570   -2.0870   -1.0060 hn        1 MOL      0.102975
    101 H42        -3.5630   -3.4000   -3.8410 h1        1 MOL      0.121091
    102 H43        -3.0430   -1.2870   -4.6790 hc        1 MOL      0.006616
    103 H44        -1.1260   -2.7830   -3.8240 hc        1 MOL      0.043034
    104 H45        -0.5760   -1.1370   -4.1410 hc        1 MOL      0.043034
    105 H46        -0.9440   -1.5320   -2.5470 hc        1 MOL      0.043034
    106 H47        -2.7890    0.2520   -1.9740 hc        1 MOL      0.043034
    107 H48        -2.4580    0.6610   -3.7210 hc        1 MOL      0.043034
    108 H49        -4.0230    0.3340   -3.2930 hc        1 MOL      0.043034
    109 N10        -5.7680   -1.6170   -2.2300 n         1 MOL     -0.302116
    110 C35        -7.1280   -1.0440   -2.1440 c3        1 MOL      0.173665
    111 C36        -7.1630    0.3640   -1.6640 c         1 MOL      0.511243
    112 O17        -8.2410    0.9410   -1.8390 o         1 MOL     -0.528058
    113 C37        -8.0310   -1.8920   -1.3180 c3        1 MOL     -0.450724
    114 C38        -8.2420   -3.3000   -1.8840 c         1 MOL      0.761036
    115 N11        -8.5220   -3.5390   -3.1270 n         1 MOL     -0.831944
    116 O18        -8.2060   -4.2900   -1.1710 o         1 MOL     -0.573509
    117 H50        -5.1360   -1.6330   -1.4420 hn        1 MOL      0.326166
    118 H51        -7.5700   -0.9780   -3.1460 h1        1 MOL      0.015375
    119 H52        -8.9740   -1.3750   -1.1530 hc        1 MOL      0.116593
    120 H53        -7.6210   -2.0280   -0.3200 hc        1 MOL      0.116593
    121 H54        -8.3780   -2.7730   -3.7700 hn        1 MOL      0.385407
    122 H55        -8.7370   -4.4630   -3.4840 hn        1 MOL      0.385407
    123 N12        -6.0970    0.9260   -1.0180 n         1 MOL     -0.496243
    124 C39        -6.2760    2.2600   -0.3450 c3        1 MOL      0.218233
    125 C40        -4.9390    2.8770    0.1150 c         1 MOL      0.335202
    126 O19        -3.9860    2.1190    0.1780 o         1 MOL     -0.275183
    127 C41        -7.1190    2.1380    0.9390 c3        1 MOL     -0.323368
    128 C42        -6.7670    0.9540    1.8550 ca        1 MOL      0.385938
    129 C43        -7.5950   -0.1620    1.8920 ca        1 MOL     -0.416283
    130 C44        -5.7090    0.9790    2.7830 ca        1 MOL     -0.416283
    131 C45        -7.2270   -1.3680    2.5760 ca        1 MOL     -0.005702
    132 C46        -5.3600   -0.1300    3.5710 ca        1 MOL     -0.005702
    133 C47        -6.0660   -1.3200    3.3590 ca        1 MOL      0.107621
    134 O20        -5.6350   -2.5250    3.8930 oh        1 MOL     -0.417189
    135 H56        -5.1940    0.4940   -0.9230 hn        1 MOL      0.205599
    136 H57        -6.8110    2.9890   -0.9550 h1        1 MOL      0.043654
    137 H58        -8.0970    2.1220    0.4550 hc        1 MOL      0.104850
    138 H59        -7.1790    3.0800    1.4870 hc        1 MOL      0.104850
    139 H60        -8.4730   -0.1420    1.2650 ha        1 MOL      0.157741
    140 H61        -5.0670    1.8420    2.8820 ha        1 MOL      0.157741
    141 H62        -7.9310   -2.1950    2.5830 ha        1 MOL      0.122496
    142 H63        -4.4860   -0.0400    4.2100 ha        1 MOL      0.122496
    143 H64        -6.3210   -3.1720    3.7340 ho        1 MOL      0.279169
    144 N13        -4.9160    4.2440    0.3370 n         1 MOL     -0.604607
    145 C48        -3.8770    5.0030    1.0540 c3        1 MOL     -0.015970
    146 C49        -2.4760    5.1220    0.4220 c         1 MOL      0.265853
    147 O21        -1.7590    6.1120    0.6310 o         1 MOL     -0.492328
    148 C50        -3.7040    4.6670    2.5290 c3        1 MOL     -0.077405
    149 C51        -4.9130    4.8820    3.3880 c3        1 MOL      0.049299
    150 C52        -4.6650    4.4110    4.8260 c         1 MOL      0.525768
    151 O22        -4.7780    3.1660    5.1100 o         1 MOL     -0.651438
    152 O23        -4.4790    5.1810    5.7860 o         1 MOL     -0.651438
    153 H65        -5.7960    4.7210    0.2030 hn        1 MOL      0.356671
    154 H66        -4.2330    6.0300    1.0700 h1        1 MOL      0.114949
    155 H67        -2.8530    5.2780    2.8230 hc        1 MOL      0.064277
    156 H68        -3.4410    3.6060    2.6150 hc        1 MOL      0.064277
    157 H69        -5.7690    4.4240    2.9000 hc        1 MOL     -0.036643
    158 H70        -5.2050    5.9360    3.4150 hc        1 MOL     -0.036643
    159 N14        -2.0720    4.1700   -0.4460 n         1 MOL      0.147356
    160 C53        -0.8720    4.1740   -1.2800 c3        1 MOL     -0.328756
    161 C54        -1.0550    5.2220   -2.4750 c         1 MOL      0.561934
    162 O24        -0.1630    5.9700   -2.7970 o         1 MOL     -0.524616
    163 C55        -0.5330    2.8020   -1.7760 c3        1 MOL      0.118493
    164 C56        -0.4360    1.7070   -0.6920 c3        1 MOL     -0.500716
    165 C57         0.5560    2.0160    0.4340 c         1 MOL      0.914479
    166 O25         0.2440    2.4020    1.6010 o         1 MOL     -0.719982
    167 O26         1.7490    1.8310    0.1930 o         1 MOL     -0.719982
    168 H71        -2.7270    3.3970   -0.4370 hn        1 MOL      0.082442
    169 H72        -0.0290    4.4910   -0.6590 h1        1 MOL      0.181082
    170 H73         0.3910    2.9940   -2.3140 hc        1 MOL      0.006318
    171 H74        -1.2900    2.5900   -2.5320 hc        1 MOL      0.006318
    172 H75        -0.2360    0.6780   -0.9950 hc        1 MOL      0.125134
    173 H76        -1.4060    1.6600   -0.2070 hc        1 MOL      0.125134
    174 N15        -2.3170    5.2640   -2.9710 n         1 MOL     -0.285768
    175 C58        -2.9400    6.3280   -3.7640 c3        1 MOL     -0.369675
    176 H77        -4.0190    6.1740   -3.7950 h1        1 MOL      0.140966
    177 H78        -2.7240    7.2950   -3.3100 h1        1 MOL      0.140966
    178 H79        -2.5410    6.3060   -4.7790 h1        1 MOL      0.140966
    179 H80        -2.8770    4.5700   -2.4990 hn        1 MOL      0.219967
    180 Ca1         4.2420    2.2290    1.0710 Ca        1 MOL      1.814300
    181 O27         2.4140    1.6560    2.8270 oh        1 MOL     -0.851653
    182 H81         1.6560    1.9720    2.3340 ho        1 MOL      0.409297
    183 H82         2.0500    1.4280    3.6900 ho        1 MOL      0.409297
    184 O28         3.1940    4.8500    0.8870 oh        1 MOL     -0.851653
    185 H83         2.3840    5.1890    0.5100 ho        1 MOL      0.409297
    186 H84         3.8870    5.2440    0.3560 ho        1 MOL      0.409297
    187 O29         4.8490    2.9830    3.6610 oh        1 MOL     -0.851653
    188 H85         4.5840    2.4270    4.3860 ho        1 MOL      0.409297
    189 H86         5.4340    3.6330    4.0490 ho        1 MOL      0.409297
    190 O30         5.9940    0.6520    2.4140 oh        1 MOL     -0.851653
    191 H87         6.2540   -0.1970    2.7540 ho        1 MOL      0.409297
    192 H88         6.5090    1.2870    2.9250 ho        1 MOL      0.409297
@<TRIPOS>BOND
     1    1    2 1   
     2    1    4 1   
     3    1    5 1   
     4    1    6 1   
     5    2    3 2   
     6    2    7 1   
     7    7    8 1   
     8    7   15 1   
     9    8    9 1   
    10    8   11 1   
    11    8   16 1   
    12    9   10 2   
    13    9   19 1   
    14   11   12 1   
    15   11   17 1   
    16   11   18 1   
    17   12   13 1   
    18   12   14 1   
    19   19   20 1   
    20   19   27 1   
    21   20   21 1   
    22   20   23 1   
    23   20   28 1   
    24   21   22 2   
    25   21   38 1   
    26   23   24 1   
    27   23   25 1   
    28   23   29 1   
    29   24   26 1   
    30   24   30 1   
    31   24   31 1   
    32   25   32 1   
    33   25   33 1   
    34   25   34 1   
    35   26   35 1   
    36   26   36 1   
    37   26   37 1   
    38   38   39 1   
    39   38   46 1   
    40   39   40 1   
    41   39   42 1   
    42   39   47 1   
    43   40   41 2   
    44   40   50 1   
    45   42   43 1   
    46   42   48 1   
    47   42   49 1   
    48   43   44 1   
    49   43   45 1   
    50   50   51 1   
    51   50   54 1   
    52   51   52 1   
    53   51   55 1   
    54   51   56 1   
    55   52   53 2   
    56   52   57 1   
    57   57   58 1   
    58   57   65 1   
    59   58   59 1   
    60   58   61 1   
    61   58   66 1   
    62   59   60 2   
    63   59   69 1   
    64   61   62 1   
    65   61   67 1   
    66   61   68 1   
    67   62   63 1   
    68   62   64 1   
    69   69   70 1   
    70   69   73 1   
    71   70   71 1   
    72   70   74 1   
    73   70   75 1   
    74   71   72 2   
    75   71   76 1   
    76   76   77 1   
    77   76   85 1   
    78   77   78 1   
    79   77   80 1   
    80   77   86 1   
    81   78   79 2   
    82   78   93 1   
    83   80   81 1   
    84   80   87 1   
    85   80   88 1   
    86   81   82 1   
    87   81   89 1   
    88   81   90 1   
    89   82   83 1   
    90   82   84 2   
    91   83   91 1   
    92   83   92 1   
    93   93   94 1   
    94   93  100 1   
    95   94   95 1   
    96   94   97 1   
    97   94  101 1   
    98   95   96 2   
    99   95  109 1   
   100   97   98 1   
   101   97   99 1   
   102   97  102 1   
   103   98  103 1   
   104   98  104 1   
   105   98  105 1   
   106   99  106 1   
   107   99  107 1   
   108   99  108 1   
   109  109  110 1   
   110  109  117 1   
   111  110  111 1   
   112  110  113 1   
   113  110  118 1   
   114  111  112 2   
   115  111  123 1   
   116  113  114 1   
   117  113  119 1   
   118  113  120 1   
   119  114  115 1   
   120  114  116 2   
   121  115  121 1   
   122  115  122 1   
   123  123  124 1   
   124  123  135 1   
   125  124  125 1   
   126  124  127 1   
   127  124  136 1   
   128  125  126 2   
   129  125  144 1   
   130  127  128 1   
   131  127  137 1   
   132  127  138 1   
   133  128  129 ar  
   134  128  130 ar  
   135  129  131 ar  
   136  129  139 1   
   137  130  132 ar  
   138  130  140 1   
   139  131  133 ar  
   140  131  141 1   
   141  132  133 ar  
   142  132  142 1   
   143  133  134 1   
   144  134  143 1   
   145  144  145 1   
   146  144  153 1   
   147  145  146 1   
   148  145  148 1   
   149  145  154 1   
   150  146  147 2   
   151  146  159 1   
   152  148  149 1   
   153  148  155 1   
   154  148  156 1   
   155  149  150 1   
   156  149  157 1   
   157  149  158 1   
   158  150  151 1   
   159  150  152 1   
   160  159  160 1   
   161  159  168 1   
   162  160  161 1   
   163  160  163 1   
   164  160  169 1   
   165  161  162 2   
   166  161  174 1   
   167  163  164 1   
   168  163  170 1   
   169  163  171 1   
   170  164  165 1   
   171  164  172 1   
   172  164  173 1   
   173  165  166 1   
   174  165  167 1   
   175  174  175 1   
   176  174  179 1   
   177  175  176 1   
   178  175  177 1   
   179  175  178 1   
   180  181  182 1   
   181  181  183 1   
   182  184  185 1   
   183  184  186 1   
   184  187  188 1   
   185  187  189 1   
   186  190  191 1   
   187  190  192 1   
@<TRIPOS>SUBSTRUCTURE
     1 MOL         1 TEMP              0 ****  ****    0 ROOT
