@<TRIPOS>MOLECULE
MOL
  181   177     1     0     0
SMALL
resp


@<TRIPOS>ATOM
      1 C1         -4.6290    6.0480    4.1850 c3        1 MOL     -0.328232
      2 C2         -4.8560    4.5360    4.1520 c         1 MOL      0.606877
      3 O1         -4.1560    3.7800    4.8870 o         1 MOL     -0.588998
      4 H1         -5.5690    6.5510    4.4150 hc        1 MOL      0.092902
      5 H2         -3.8920    6.2890    4.9510 hc        1 MOL      0.092902
      6 H3         -4.2660    6.3820    3.2130 hc        1 MOL      0.092902
      7 N1         -5.6150    3.9140    3.2490 n         1 MOL     -0.304487
      8 C3         -6.5200    4.5310    2.1960 c3        1 MOL     -0.095327
      9 C4         -6.0700    4.2600    0.7690 c         1 MOL      0.575560
     10 O2         -5.5530    3.1250    0.4920 o         1 MOL     -0.596052
     11 C5         -7.9960    4.0350    2.3280 c3        1 MOL     -0.092324
     12 C6         -8.1540    2.5130    2.6000 c         1 MOL      0.628062
     13 O3         -9.3070    2.0790    2.8740 o         1 MOL     -0.651086
     14 O4         -7.1610    1.7100    2.5290 o         1 MOL     -0.651086
     15 H4         -5.6740    2.9000    3.3410 hn        1 MOL      0.180501
     16 H5         -6.5790    5.6110    2.3210 h1        1 MOL      0.070210
     17 H6         -8.4650    4.2340    1.3600 hc        1 MOL      0.039771
     18 H7         -8.5080    4.6860    3.0380 hc        1 MOL      0.039771
     19 N2         -6.2450    5.2420   -0.1190 n         1 MOL     -0.453380
     20 C7         -5.9490    5.2160   -1.5710 c3        1 MOL      0.262416
     21 C8         -6.7980    4.3650   -2.4370 c         1 MOL      0.346786
     22 O5         -7.5190    4.8280   -3.3090 o         1 MOL     -0.554991
     23 C9         -4.4370    4.7980   -1.8680 c3        1 MOL     -0.424715
     24 H8         -6.5160    6.1130    0.3210 hn        1 MOL      0.280894
     25 H9         -6.1460    6.2120   -1.9790 h1        1 MOL      0.030486
     26 H10        -4.2770    4.7070   -2.9390 hc        1 MOL      0.127900
     27 H11        -3.8110    5.5370   -1.3640 hc        1 MOL      0.127900
     28 H12        -4.2100    3.7870   -1.5260 hc        1 MOL      0.127900
     29 N3         -6.8150    3.1240   -2.0440 n         1 MOL      0.014981
     30 C10        -7.5650    2.0280   -2.6050 c3        1 MOL      0.019563
     31 C11        -8.2180    1.0760   -1.5400 c         1 MOL      0.377218
     32 O6         -7.7750    0.9590   -0.4360 o         1 MOL     -0.353976
     33 C12        -6.6450    1.1820   -3.4910 c3        1 MOL     -0.004748
     34 C13        -5.5010    0.4910   -2.7730 c         1 MOL      0.646729
     35 O7         -5.2720    0.8300   -1.6070 o         1 MOL     -0.654052
     36 O8         -4.6670   -0.1310   -3.4640 o         1 MOL     -0.654052
     37 H13        -6.3050    2.9610   -1.1820 hn        1 MOL     -0.043973
     38 H14        -8.3430    2.4570   -3.2250 h1        1 MOL      0.033823
     39 H15        -6.3760    1.9130   -4.2500 hc        1 MOL     -0.012485
     40 H16        -7.1410    0.4140   -4.0780 hc        1 MOL     -0.012485
     41 N4         -9.2620    0.3500   -1.9860 n         1 MOL     -0.426829
     42 C14        -9.9630   -0.6740   -1.2170 c3        1 MOL     -0.227805
     43 C15        -9.1810   -1.9420   -0.9790 c         1 MOL      0.393238
     44 O9         -9.6940   -2.9330   -0.3930 o         1 MOL     -0.519518
     45 H17        -9.4650    0.4920   -2.9560 hn        1 MOL      0.293194
     46 H18       -10.9160   -0.8080   -1.7400 h1        1 MOL      0.173388
     47 H19       -10.2960   -0.2530   -0.2720 h1        1 MOL      0.173388
     48 N5         -7.8950   -1.9810   -1.4500 n         1 MOL     -0.086107
     49 C16        -7.1020   -3.1840   -1.4840 c3        1 MOL      0.001015
     50 C17        -5.6650   -2.9990   -0.8380 c         1 MOL      0.640905
     51 O10        -5.4180   -1.9180   -0.2670 o         1 MOL     -0.723759
     52 C18        -6.9860   -3.5580   -2.9590 c3        1 MOL     -0.153242
     53 C19        -8.3330   -3.7770   -3.6580 c         1 MOL      0.624645
     54 N6         -8.7420   -2.9800   -4.6070 n         1 MOL     -0.814493
     55 O11        -9.0740   -4.7220   -3.2910 o         1 MOL     -0.539281
     56 H20        -7.4830   -1.1110   -1.7750 hn        1 MOL      0.092450
     57 H21        -7.6130   -3.9650   -0.9270 h1        1 MOL      0.054475
     58 H22        -6.3640   -4.4550   -2.9400 hc        1 MOL      0.040847
     59 H23        -6.3560   -2.8980   -3.5610 hc        1 MOL      0.040847
     60 H24        -8.0140   -2.4650   -5.0850 hn        1 MOL      0.385048
     61 H25        -9.7240   -2.8910   -4.7830 hn        1 MOL      0.385048
     62 N7         -4.8590   -4.0140   -0.7420 n         1 MOL     -0.435800
     63 C20        -3.6570   -3.9710    0.0200 c3        1 MOL      0.103962
     64 C21        -2.7470   -5.2270   -0.1560 c         1 MOL      0.547916
     65 O12        -2.9990   -5.9260   -1.0940 o         1 MOL     -0.532544
     66 H26        -5.2710   -4.8730   -1.0650 hn        1 MOL      0.295635
     67 H27        -3.9810   -3.9730    1.0620 h1        1 MOL      0.049296
     68 H28        -3.0720   -3.0700   -0.1160 h1        1 MOL      0.049296
     69 N8         -1.6680   -5.3790    0.6310 n         1 MOL     -0.439767
     70 C22        -1.1480   -4.3300    1.5270 c3        1 MOL     -0.265330
     71 C23         0.2230   -3.9180    0.9940 c         1 MOL      0.732197
     72 O13         0.9270   -4.7620    0.4450 o         1 MOL     -0.555692
     73 C24        -1.0590   -4.8100    3.0020 c3        1 MOL      0.440404
     74 C25        -2.3790   -5.0620    3.6060 c3        1 MOL     -0.116870
     75 O14        -0.3460   -5.9880    3.1310 oh        1 MOL     -0.597252
     76 H29        -1.1650   -6.2380    0.5080 hn        1 MOL      0.316983
     77 H30        -1.7820   -3.4450    1.5260 h1        1 MOL      0.083016
     78 H31        -0.6100   -4.0370    3.6220 h1        1 MOL      0.005048
     79 H32         0.2860   -5.9620    2.4070 ho        1 MOL      0.384599
     80 H33        -2.8090   -4.1730    4.0750 hc        1 MOL      0.013575
     81 H34        -3.1570   -5.4610    2.9470 hc        1 MOL      0.013575
     82 H35        -2.2030   -5.7510    4.4350 hc        1 MOL      0.013575
     83 N9          0.6440   -2.6830    1.2180 n         1 MOL     -0.587510
     84 C26         1.9330   -2.0780    0.9130 c3        1 MOL     -0.090499
     85 C27         2.8360   -1.5930    2.0650 c         1 MOL      0.651214
     86 O15         2.3970   -1.2750    3.1620 o         1 MOL     -0.595424
     87 C28         1.7670   -1.0430   -0.2410 c3        1 MOL      0.330410
     88 C29         1.0570    0.3000    0.2500 c3        1 MOL      0.123065
     89 C30         1.0180   -1.6610   -1.4740 c3        1 MOL     -0.373722
     90 C31         0.9720    1.3960   -0.7760 c3        1 MOL     -0.101567
     91 H36        -0.0080   -2.2010    1.8260 hn        1 MOL      0.269739
     92 H37         2.6190   -2.8080    0.4870 h1        1 MOL      0.168595
     93 H38         2.7720   -0.7860   -0.5760 hc        1 MOL     -0.092809
     94 H39         1.6640    0.5680    1.1180 hc        1 MOL     -0.052417
     95 H40         0.0550    0.0720    0.6340 hc        1 MOL     -0.052417
     96 H41         0.8730   -0.8600   -2.1930 hc        1 MOL      0.091496
     97 H42         1.6050   -2.5320   -1.7780 hc        1 MOL      0.091496
     98 H43         0.0560   -2.0280   -1.1380 hc        1 MOL      0.091496
     99 H44         1.0590    2.4020   -0.3540 hc        1 MOL      0.014822
    100 H45         1.8150    1.2640   -1.4650 hc        1 MOL      0.014822
    101 H46         0.0250    1.2810   -1.2950 hc        1 MOL      0.014822
    102 N10         4.1630   -1.5900    1.8930 n         1 MOL     -0.554510
    103 C32         5.1120   -2.0860    0.8590 c3        1 MOL      0.107310
    104 C33         6.4470   -1.3060    0.7420 c         1 MOL      0.465145
    105 O16         6.8140   -0.6410    1.7710 o         1 MOL     -0.508143
    106 C34         5.4490   -3.6120    1.1990 c3        1 MOL      0.006034
    107 C35         5.8930   -3.9900    2.6170 c         1 MOL      0.691261
    108 O17         5.4830   -3.4320    3.6620 o         1 MOL     -0.723304
    109 O18         6.6690   -4.9820    2.6590 o         1 MOL     -0.723304
    110 H47         4.5890   -1.2530    2.7420 hn        1 MOL      0.333828
    111 H48         4.6650   -2.1020   -0.1350 h1        1 MOL      0.020081
    112 H49         6.1980   -3.9690    0.4950 hc        1 MOL     -0.045490
    113 H50         4.5520   -4.1680    0.9260 hc        1 MOL     -0.045490
    114 N11         7.1190   -1.4010   -0.4080 n         1 MOL     -0.499443
    115 C36         8.5190   -0.8460   -0.5120 c3        1 MOL      0.367346
    116 C37         8.7050   -0.4230   -2.0000 c         1 MOL      0.071332
    117 O19         8.3240   -1.1450   -2.9090 o         1 MOL     -0.447761
    118 C38         9.5000   -1.9890   -0.1960 c3        1 MOL     -0.197091
    119 C39        10.9680   -1.6610   -0.2470 ca        1 MOL      0.186396
    120 C40        11.6650   -1.6930   -1.4230 ca        1 MOL     -0.239073
    121 C41        11.5110   -1.0770    0.8900 ca        1 MOL     -0.239073
    122 C42        12.9340   -1.0980   -1.4920 ca        1 MOL     -0.087703
    123 C43        12.8300   -0.6350    0.9030 ca        1 MOL     -0.087703
    124 C44        13.5750   -0.7000   -0.3230 ca        1 MOL     -0.151491
    125 H51         6.5560   -1.6450   -1.2090 hn        1 MOL      0.329778
    126 H52         8.6640    0.0230    0.1310 h1        1 MOL     -0.029076
    127 H53         9.4590   -2.8490   -0.8710 hc        1 MOL      0.078966
    128 H54         9.2480   -2.3960    0.7910 hc        1 MOL      0.078966
    129 H55        11.1240   -1.8940   -2.3370 ha        1 MOL      0.149755
    130 H56        10.8580   -0.9990    1.7450 ha        1 MOL      0.149755
    131 H57        13.2960   -0.9340   -2.4940 ha        1 MOL      0.102899
    132 H58        13.3140   -0.2950    1.8040 ha        1 MOL      0.102899
    133 H59        14.5610   -0.2670   -0.3950 ha        1 MOL      0.088782
    134 N12         9.3070    0.7660   -2.2370 n         1 MOL      0.155584
    135 C45        10.0150    1.6550   -1.3150 c3        1 MOL     -0.018265
    136 C46         9.0860    2.3890   -0.3140 c         1 MOL      0.406494
    137 O20         9.5010    2.6090    0.8470 o         1 MOL     -0.566453
    138 C47        10.7700    2.6540   -2.2160 c3        1 MOL     -0.030085
    139 C48        10.7580    2.1260   -3.6130 c3        1 MOL     -0.004549
    140 C49         9.3950    1.4260   -3.5680 c3        1 MOL     -0.236911
    141 H60        10.8230    1.1730   -0.7720 h1        1 MOL      0.083803
    142 H61        10.2820    3.6260   -2.1370 hc        1 MOL      0.014993
    143 H62        11.8070    2.6700   -1.8810 hc        1 MOL      0.014993
    144 H63        10.8070    2.8950   -4.3870 hc        1 MOL      0.007860
    145 H64        11.5310    1.3850   -3.7550 hc        1 MOL      0.007860
    146 H65         8.5750    2.1320   -3.7020 h1        1 MOL      0.119458
    147 H66         9.3410    0.6760   -4.3690 h1        1 MOL      0.119458
    148 N13         7.8700    2.7070   -0.7430 n         1 MOL     -0.068850
    149 C50         6.8680    3.4600    0.1000 c3        1 MOL      0.106913
    150 C51         7.2730    4.8520    0.5720 c         1 MOL      0.385558
    151 O21         7.3440    5.7270   -0.2680 o         1 MOL     -0.548842
    152 C52         5.5070    3.4400   -0.6500 c3        1 MOL     -0.073864
    153 C53         5.0960    1.9650   -0.9570 c3        1 MOL      0.061453
    154 C54         5.4210    1.4340   -2.3120 c         1 MOL      0.666801
    155 O22         6.2910    1.9650   -3.0690 o         1 MOL     -0.674058
    156 O23         4.6780    0.4850   -2.7840 o         1 MOL     -0.674058
    157 H67         7.5210    2.5270   -1.6680 hn        1 MOL      0.102930
    158 H68         6.6900    2.8600    0.9940 h1        1 MOL      0.065616
    159 H69         5.6450    4.1030   -1.4960 hc        1 MOL      0.012579
    160 H70         4.7870    3.8130    0.0870 hc        1 MOL      0.012579
    161 H71         4.0130    1.8780   -0.8240 hc        1 MOL     -0.052717
    162 H72         5.5770    1.3790   -0.1720 hc        1 MOL     -0.052717
    163 N14         7.6870    5.1940    1.8050 n         1 MOL     -0.339840
    164 C55         8.1470    4.2980    2.9140 c3        1 MOL     -0.138621
    165 H73         9.2190    4.4270    3.0640 h1        1 MOL      0.079635
    166 H74         7.6190    4.5550    3.8330 h1        1 MOL      0.079635
    167 H75         7.9390    3.2600    2.6530 h1        1 MOL      0.079635
    168 H76         7.6490    6.1830    1.9690 hn        1 MOL      0.259272
    169 Ca1        -5.3480    0.5430    1.0280 Ca        1 MOL      1.725134
    170 O24        -3.6920    1.7720    2.7950 oh        1 MOL     -0.795557
    171 H77        -3.8560    2.0690    3.6930 ho        1 MOL      0.396680
    172 H78        -2.9190    2.2660    2.5180 ho        1 MOL      0.396680
    173 O25        -2.6060    0.5940    0.5060 oh        1 MOL     -0.795557
    174 H79        -2.3580    1.5000    0.3200 ho        1 MOL      0.396680
    175 H80        -2.6080    0.1770   -0.3560 ho        1 MOL      0.396680
    176 O26        -7.2990   -0.9810    1.8080 oh        1 MOL     -0.795557
    177 H81        -7.3440   -1.9130    1.5990 ho        1 MOL      0.396680
    178 H82        -7.7990   -0.8960    2.6190 ho        1 MOL      0.396680
    179 O27        -4.5020   -1.4770    2.7030 oh        1 MOL     -0.795557
    180 H83        -3.6790   -1.5700    3.1710 ho        1 MOL      0.396680
    181 H84        -4.9010   -2.3460    2.7490 ho        1 MOL      0.396680
@<TRIPOS>BOND
     1    1    2 1   
     2    1    4 1   
     3    1    5 1   
     4    1    6 1   
     5    2    3 2   
     6    2    7 1   
     7    7    8 1   
     8    7   15 1   
     9    8    9 1   
    10    8   11 1   
    11    8   16 1   
    12    9   10 2   
    13    9   19 1   
    14   11   12 1   
    15   11   17 1   
    16   11   18 1   
    17   12   13 1   
    18   12   14 1   
    19   19   20 1   
    20   19   24 1   
    21   20   21 1   
    22   20   23 1   
    23   20   25 1   
    24   21   22 2   
    25   21   29 1   
    26   23   26 1   
    27   23   27 1   
    28   23   28 1   
    29   29   30 1   
    30   29   37 1   
    31   30   31 1   
    32   30   33 1   
    33   30   38 1   
    34   31   32 2   
    35   31   41 1   
    36   33   34 1   
    37   33   39 1   
    38   33   40 1   
    39   34   35 1   
    40   34   36 1   
    41   41   42 1   
    42   41   45 1   
    43   42   43 1   
    44   42   46 1   
    45   42   47 1   
    46   43   44 2   
    47   43   48 1   
    48   48   49 1   
    49   48   56 1   
    50   49   50 1   
    51   49   52 1   
    52   49   57 1   
    53   50   51 2   
    54   50   62 1   
    55   52   53 1   
    56   52   58 1   
    57   52   59 1   
    58   53   54 1   
    59   53   55 2   
    60   54   60 1   
    61   54   61 1   
    62   62   63 1   
    63   62   66 1   
    64   63   64 1   
    65   63   67 1   
    66   63   68 1   
    67   64   65 2   
    68   64   69 1   
    69   69   70 1   
    70   69   76 1   
    71   70   71 1   
    72   70   73 1   
    73   70   77 1   
    74   71   72 2   
    75   71   83 1   
    76   73   74 1   
    77   73   75 1   
    78   73   78 1   
    79   74   80 1   
    80   74   81 1   
    81   74   82 1   
    82   75   79 1   
    83   83   84 1   
    84   83   91 1   
    85   84   85 1   
    86   84   87 1   
    87   84   92 1   
    88   85   86 2   
    89   85  102 1   
    90   87   88 1   
    91   87   89 1   
    92   87   93 1   
    93   88   90 1   
    94   88   94 1   
    95   88   95 1   
    96   89   96 1   
    97   89   97 1   
    98   89   98 1   
    99   90   99 1   
   100   90  100 1   
   101   90  101 1   
   102  102  103 1   
   103  102  110 1   
   104  103  104 1   
   105  103  106 1   
   106  103  111 1   
   107  104  105 2   
   108  104  114 1   
   109  106  107 1   
   110  106  112 1   
   111  106  113 1   
   112  107  108 1   
   113  107  109 1   
   114  114  115 1   
   115  114  125 1   
   116  115  116 1   
   117  115  118 1   
   118  115  126 1   
   119  116  117 2   
   120  116  134 1   
   121  118  119 1   
   122  118  127 1   
   123  118  128 1   
   124  119  120 ar  
   125  119  121 ar  
   126  120  122 ar  
   127  120  129 1   
   128  121  123 ar  
   129  121  130 1   
   130  122  124 ar  
   131  122  131 1   
   132  123  124 ar  
   133  123  132 1   
   134  124  133 1   
   135  134  135 1   
   136  134  140 1   
   137  135  136 1   
   138  135  138 1   
   139  135  141 1   
   140  136  137 2   
   141  136  148 1   
   142  138  139 1   
   143  138  142 1   
   144  138  143 1   
   145  139  140 1   
   146  139  144 1   
   147  139  145 1   
   148  140  146 1   
   149  140  147 1   
   150  148  149 1   
   151  148  157 1   
   152  149  150 1   
   153  149  152 1   
   154  149  158 1   
   155  150  151 2   
   156  150  163 1   
   157  152  153 1   
   158  152  159 1   
   159  152  160 1   
   160  153  154 1   
   161  153  161 1   
   162  153  162 1   
   163  154  155 1   
   164  154  156 1   
   165  163  164 1   
   166  163  168 1   
   167  164  165 1   
   168  164  166 1   
   169  164  167 1   
   170  170  171 1   
   171  170  172 1   
   172  173  174 1   
   173  173  175 1   
   174  176  177 1   
   175  176  178 1   
   176  179  180 1   
   177  179  181 1   
@<TRIPOS>SUBSTRUCTURE
     1 MOL         1 TEMP              0 ****  ****    0 ROOT
