@<TRIPOS>MOLECULE
MOL
  188   182     1     0     0
SMALL
resp


@<TRIPOS>ATOM
      1 C1          6.0920    2.0350    2.7310 c3        1 MOL     -0.324285
      2 C2          6.5340    2.1870    1.1910 c         1 MOL      0.663716
      3 O1          5.7610    1.6810    0.2920 o         1 MOL     -0.470499
      4 H1          6.4410    2.8990    3.2970 hc        1 MOL      0.083127
      5 H2          5.0060    1.9750    2.7940 hc        1 MOL      0.083127
      6 H3          6.5320    1.1280    3.1480 hc        1 MOL      0.083127
      7 N1          7.7820    2.5460    0.8480 n         1 MOL     -0.522045
      8 C3          8.3140    2.4690   -0.5130 c3        1 MOL     -0.089606
      9 C4          8.3950    0.9990   -1.0150 c         1 MOL      0.669762
     10 O2          8.5430    0.7080   -2.1730 o         1 MOL     -0.531313
     11 C5          7.5780    3.4500   -1.4760 c3        1 MOL     -0.229915
     12 C6          7.4850    4.9390   -1.1030 c         1 MOL      0.767826
     13 O3          6.5870    5.6400   -1.5310 o         1 MOL     -0.641699
     14 O4          8.3350    5.4360   -0.4040 o         1 MOL     -0.641699
     15 H4          8.4310    2.8300    1.5630 hn        1 MOL      0.325518
     16 H5          9.3360    2.8440   -0.4470 h1        1 MOL      0.105775
     17 H6          6.5820    3.0320   -1.5820 hc        1 MOL      0.075175
     18 H7          7.9750    3.3540   -2.4840 hc        1 MOL      0.075175
     19 N2          8.4140    0.0360   -0.0970 n         1 MOL     -0.581680
     20 C7          8.4470   -1.4400   -0.3700 c3        1 MOL      0.180514
     21 C8          7.1310   -2.1710   -0.1010 c         1 MOL      0.403416
     22 O5          7.1050   -3.4180   -0.2390 o         1 MOL     -0.536307
     23 C9          9.7450   -2.0690    0.2780 c3        1 MOL     -0.094596
     24 C10         9.5250   -2.4460    1.7700 c3        1 MOL      0.123968
     25 C11        10.7990   -3.1330    2.3990 c3        1 MOL     -0.125087
     26 C12        10.5660   -3.2560    3.8740 c3        1 MOL      0.007629
     27 N3         11.7950   -3.6800    4.4800 n4        1 MOL     -0.096671
     28 H8          8.1040    0.2890    0.8360 hn        1 MOL      0.230419
     29 H9          8.6400   -1.6340   -1.4210 h1        1 MOL      0.108998
     30 H10        10.6090   -1.4120    0.2200 hc        1 MOL      0.036866
     31 H11        10.0330   -3.0070   -0.1970 hc        1 MOL      0.036866
     32 H12         8.6440   -3.0810    1.8590 hc        1 MOL     -0.009491
     33 H13         9.3150   -1.5400    2.3540 hc        1 MOL     -0.009491
     34 H14        11.6580   -2.5300    2.1200 hc        1 MOL      0.061279
     35 H15        10.7490   -4.1400    1.9780 hc        1 MOL      0.061279
     36 H16         9.9670   -4.1260    4.1390 hx        1 MOL      0.069715
     37 H17        10.2030   -2.2910    4.2130 hx        1 MOL      0.069715
     38 H18        11.9920   -4.6570    4.3450 hn        1 MOL      0.194835
     39 H19        12.6090   -3.1380    4.2020 hn        1 MOL      0.194835
     40 H20        11.7730   -3.5550    5.4820 hn        1 MOL      0.194835
     41 N4          6.0500   -1.5090    0.2730 n         1 MOL     -0.354464
     42 C13         4.7090   -2.0470    0.3400 c3        1 MOL      0.041343
     43 C14         4.2820   -2.4000   -1.1380 c         1 MOL      0.571901
     44 O6          4.6680   -1.6880   -2.0880 o         1 MOL     -0.412826
     45 C15         3.6420   -0.9840    0.7640 c3        1 MOL     -0.172028
     46 C16         2.2180   -1.4280    0.5780 c         1 MOL      0.594117
     47 O7          1.5400   -1.9240    1.5140 o         1 MOL     -0.699286
     48 O8          1.6780   -1.2010   -0.5000 o         1 MOL     -0.699286
     49 H21         6.1240   -0.5070    0.3210 hn        1 MOL      0.227437
     50 H22         4.6700   -2.9750    0.9040 h1        1 MOL      0.051330
     51 H23         3.7060   -0.0780    0.1630 hc        1 MOL      0.062841
     52 H24         3.8480   -0.7430    1.8080 hc        1 MOL      0.062841
     53 N5          3.5280   -3.5370   -1.3320 n         1 MOL     -0.454924
     54 C17         3.2950   -4.1110   -2.6660 c3        1 MOL     -0.108268
     55 C18         2.5660   -3.2470   -3.6690 c         1 MOL      0.546581
     56 O9          2.7660   -3.5720   -4.8660 o         1 MOL     -0.557028
     57 H25         3.1840   -4.0500   -0.5280 hn        1 MOL      0.295123
     58 H26         2.8510   -5.1010   -2.5920 h1        1 MOL      0.104807
     59 H27         4.2700   -4.3690   -3.0610 h1        1 MOL      0.104807
     60 N6          1.8600   -2.2150   -3.2910 n         1 MOL     -0.314116
     61 C19         1.4690   -1.1300   -4.2200 c3        1 MOL      0.048197
     62 C20         1.8830    0.3160   -3.7660 c         1 MOL      0.453036
     63 O10         1.3400    1.3170   -4.2210 o         1 MOL     -0.508993
     64 C21        -0.0460   -1.3370   -4.6440 c3        1 MOL     -0.297144
     65 C22        -1.0770   -1.3470   -3.5530 c         1 MOL      0.696075
     66 N7         -2.3320   -1.6740   -3.8340 n         1 MOL     -0.803204
     67 O11        -0.8900   -1.0230   -2.4130 o         1 MOL     -0.619689
     68 H28         1.8760   -1.8890   -2.3340 hn        1 MOL      0.093815
     69 H29         2.0230   -1.2470   -5.1490 h1        1 MOL      0.108602
     70 H30        -0.1250   -2.2830   -5.1750 hc        1 MOL      0.110558
     71 H31        -0.3940   -0.5400   -5.2920 hc        1 MOL      0.110558
     72 H32        -2.6060   -1.7380   -4.8050 hn        1 MOL      0.358611
     73 H33        -3.0090   -1.7210   -3.0780 hn        1 MOL      0.358611
     74 N8          2.9810    0.4070   -2.9520 n         1 MOL     -0.203985
     75 C23         3.5330    1.6190   -2.4150 c3        1 MOL     -0.226979
     76 C24         2.6330    2.3290   -1.3950 c         1 MOL      0.533919
     77 O12         2.9350    3.5200   -1.1900 o         1 MOL     -0.522749
     78 H34         3.4890   -0.4480   -2.7920 hn        1 MOL      0.161887
     79 H35         3.6480    2.2450   -3.3020 h1        1 MOL      0.140827
     80 H36         4.4960    1.3870   -1.9620 h1        1 MOL      0.140827
     81 N9          1.6930    1.6410   -0.7580 n         1 MOL     -0.383934
     82 C25         0.9720    2.1860    0.4300 c3        1 MOL      0.107904
     83 C26        -0.3680    1.5460    0.5250 c         1 MOL      0.166396
     84 O13        -0.5260    0.3500    0.3430 o         1 MOL     -0.335928
     85 C27         1.7180    1.9850    1.7050 c3        1 MOL      0.051217
     86 C28         1.0810    2.5440    2.9560 ca        1 MOL      0.014989
     87 C29         0.8460    3.9200    3.1290 ca        1 MOL     -0.139335
     88 C30         0.7710    1.6460    4.0180 ca        1 MOL     -0.139335
     89 C31         0.2570    4.3400    4.2760 ca        1 MOL     -0.325686
     90 C32         0.1440    2.1050    5.2030 ca        1 MOL     -0.325686
     91 C33        -0.0970    3.4970    5.3570 ca        1 MOL      0.433632
     92 O14        -0.5840    3.9240    6.5130 oh        1 MOL     -0.477416
     93 H37         1.6860    0.6470   -0.9240 hn        1 MOL      0.248268
     94 H38         0.8550    3.2480    0.2510 h1        1 MOL      0.057479
     95 H39         2.7450    2.3340    1.5670 hc        1 MOL      0.021336
     96 H40         1.9400    0.9280    1.8350 hc        1 MOL      0.021336
     97 H41         1.0700    4.5930    2.3090 ha        1 MOL      0.148231
     98 H42         1.0030    0.5970    3.8940 ha        1 MOL      0.148231
     99 H43        -0.0690    5.3610    4.3380 ha        1 MOL      0.152776
    100 H44        -0.0170    1.4250    6.0310 ha        1 MOL      0.152776
    101 H45        -0.6000    3.1930    7.1330 ho        1 MOL      0.356563
    102 N10        -1.4220    2.2800    0.8370 n         1 MOL     -0.032996
    103 C34        -2.8250    1.9020    0.9810 c3        1 MOL     -0.272005
    104 C35        -3.4940    1.6690   -0.4440 c         1 MOL      0.065355
    105 O15        -4.4040    0.8030   -0.5860 o         1 MOL     -0.241784
    106 C36        -3.6520    2.8860    1.8870 c3        1 MOL      0.284096
    107 C37        -2.8940    2.9890    3.2230 c3        1 MOL      0.183715
    108 C38        -5.1150    2.4070    2.0670 c3        1 MOL     -0.366128
    109 C39        -3.7290    3.4730    4.4710 c3        1 MOL     -0.352096
    110 H46        -1.2370    3.2730    0.8100 hn        1 MOL      0.164193
    111 H47        -2.6920    0.9440    1.4740 h1        1 MOL      0.092167
    112 H48        -3.6450    3.8910    1.4630 hc        1 MOL     -0.041105
    113 H49        -1.9730    3.5590    3.1230 hc        1 MOL     -0.034255
    114 H50        -2.5030    1.9840    3.3960 hc        1 MOL     -0.034255
    115 H51        -5.6570    3.0880    2.7300 hc        1 MOL      0.101473
    116 H52        -5.6670    2.5570    1.1410 hc        1 MOL      0.101473
    117 H53        -5.1890    1.4340    2.5430 hc        1 MOL      0.101473
    118 H54        -4.4190    2.6640    4.7220 hc        1 MOL      0.081980
    119 H55        -2.9990    3.6610    5.2570 hc        1 MOL      0.081980
    120 H56        -4.2820    4.3370    4.1010 hc        1 MOL      0.081980
    121 N11        -3.0190    2.3690   -1.4910 n         1 MOL      0.002291
    122 C40        -3.5890    2.1710   -2.8770 c3        1 MOL     -0.218850
    123 C41        -5.1210    2.3270   -2.9500 c         1 MOL      0.489785
    124 O16        -5.7320    1.8150   -3.8980 o         1 MOL     -0.505543
    125 C42        -2.9430    3.2340   -3.8160 c3        1 MOL      0.066733
    126 O17        -3.1790    4.4920   -3.2790 oh        1 MOL     -0.608850
    127 H57        -2.3250    3.0870   -1.3540 hn        1 MOL      0.232110
    128 H58        -3.2830    1.1760   -3.2080 h1        1 MOL      0.149573
    129 H59        -3.4170    3.1600   -4.7970 h1        1 MOL      0.078049
    130 H60        -1.8630    3.0790   -3.8600 h1        1 MOL      0.078049
    131 H61        -2.6190    4.9650   -3.9020 ho        1 MOL      0.426733
    132 N12        -5.7910    3.0550   -2.0340 n         1 MOL     -0.144899
    133 C43        -7.2360    3.1830   -1.7230 c3        1 MOL      0.063585
    134 C44        -7.9700    1.7810   -1.7310 c         1 MOL      0.529310
    135 O18        -9.0050    1.5480   -2.2770 o         1 MOL     -0.512606
    136 C45        -7.9400    4.2910   -2.5280 c3        1 MOL     -0.354830
    137 H62        -5.1970    3.6330   -1.4640 hn        1 MOL      0.177140
    138 H63        -7.3200    3.6130   -0.7250 h1        1 MOL      0.091139
    139 H64        -8.9530    4.3490   -2.1310 hc        1 MOL      0.101118
    140 H65        -7.5000    5.2810   -2.4130 hc        1 MOL      0.101118
    141 H66        -8.0070    4.1030   -3.6050 hc        1 MOL      0.101118
    142 N13        -7.3300    0.7720   -1.0980 n         1 MOL     -0.519597
    143 C46        -7.6910   -0.6560   -1.1080 c3        1 MOL      0.634938
    144 C47        -7.8640   -1.1720    0.2800 c         1 MOL      0.348769
    145 O19        -7.4190   -0.5810    1.2680 o         1 MOL     -0.434479
    146 C48        -6.6510   -1.2590   -2.0350 c3        1 MOL     -0.079129
    147 H67        -6.4850    0.9480   -0.5870 hn        1 MOL      0.019849
    148 H68        -8.6450   -0.7440   -1.6320 h1        1 MOL     -0.085677
    149 H69        -6.8940   -2.3210   -1.9780 hc        1 MOL      0.008797
    150 H70        -6.8910   -1.0080   -3.0670 hc        1 MOL      0.008797
    151 H71        -5.6370   -1.0390   -1.6910 hc        1 MOL      0.008797
    152 N14        -8.2710   -2.4300    0.4990 n         1 MOL     -0.641874
    153 C49        -8.6020   -3.0840    1.7840 c3        1 MOL     -0.145322
    154 C50        -9.6030   -2.2840    2.7400 c         1 MOL      0.450579
    155 O20        -9.9680   -2.8540    3.7500 o         1 MOL     -0.514302
    156 C51        -7.3210   -3.5920    2.5070 c3        1 MOL      0.250871
    157 C52        -6.4260   -4.5850    1.7760 c3        1 MOL     -0.289025
    158 C53        -5.6910   -4.0420    0.5400 c         1 MOL      0.599704
    159 O21        -4.8600   -3.1410    0.5880 o         1 MOL     -0.655854
    160 O22        -6.0880   -4.6580   -0.5330 o         1 MOL     -0.655854
    161 H72        -8.5190   -3.0550   -0.2520 hn        1 MOL      0.383963
    162 H73        -9.1860   -3.8990    1.3510 h1        1 MOL      0.136648
    163 H74        -7.6130   -4.0520    3.4510 hc        1 MOL     -0.011459
    164 H75        -6.7000   -2.7290    2.7670 hc        1 MOL     -0.011459
    165 H76        -7.0790   -5.3780    1.4040 hc        1 MOL      0.056492
    166 H77        -5.7220   -4.9290    2.5250 hc        1 MOL      0.056492
    167 N15       -10.0270   -1.0420    2.4210 n         1 MOL     -0.249073
    168 C54       -10.8090   -0.0960    3.2370 c3        1 MOL     -0.056432
    169 H78       -10.1350    0.6220    3.7050 h1        1 MOL      0.064229
    170 H79       -11.5180    0.4340    2.6010 h1        1 MOL      0.064229
    171 H80       -11.3500   -0.6420    4.0090 h1        1 MOL      0.064229
    172 H81        -9.5300   -0.7540    1.5830 hn        1 MOL      0.207356
    173 Ca1        -0.7370   -2.2230    0.0760 Ca        1 MOL      1.827275
    174 O23        -0.5190   -3.4480    2.4530 oh        1 MOL     -0.883940
    175 H82        -0.8590   -4.3050    2.7340 ho        1 MOL      0.428908
    176 H83         0.1620   -3.2450    3.1010 ho        1 MOL      0.428908
    177 O24        -2.3900   -4.0930    0.4520 oh        1 MOL     -0.883940
    178 H84        -2.5830   -5.0300    0.5390 ho        1 MOL      0.428908
    179 H85        -3.2330   -3.6700    0.6020 ho        1 MOL      0.428908
    180 O25        -3.2270   -1.6480   -0.7720 oh        1 MOL     -0.883940
    181 H86        -3.9320   -2.2730   -0.5960 ho        1 MOL      0.428908
    182 H87        -3.6450   -0.7830   -0.7150 ho        1 MOL      0.428908
    183 O26         0.4880   -4.5530   -0.6300 oh        1 MOL     -0.883940
    184 H88        -0.0810   -5.2990   -0.8000 ho        1 MOL      0.428908
    185 H89         1.3700   -4.9050   -0.6810 ho        1 MOL      0.428908
    186 O27        -2.2630   -1.2230    2.3460 oh        1 MOL     -0.883940
    187 H90        -3.0840   -0.7320    2.3830 ho        1 MOL      0.428908
    188 H91        -2.1440   -1.5660    3.2340 ho        1 MOL      0.428908
@<TRIPOS>BOND
     1    1    2 1   
     2    1    4 1   
     3    1    5 1   
     4    1    6 1   
     5    2    3 2   
     6    2    7 1   
     7    7    8 1   
     8    7   15 1   
     9    8    9 1   
    10    8   11 1   
    11    8   16 1   
    12    9   10 2   
    13    9   19 1   
    14   11   12 1   
    15   11   17 1   
    16   11   18 1   
    17   12   13 1   
    18   12   14 1   
    19   19   20 1   
    20   19   28 1   
    21   20   21 1   
    22   20   23 1   
    23   20   29 1   
    24   21   22 2   
    25   21   41 1   
    26   23   24 1   
    27   23   30 1   
    28   23   31 1   
    29   24   25 1   
    30   24   32 1   
    31   24   33 1   
    32   25   26 1   
    33   25   34 1   
    34   25   35 1   
    35   26   27 1   
    36   26   36 1   
    37   26   37 1   
    38   27   38 1   
    39   27   39 1   
    40   27   40 1   
    41   41   42 1   
    42   41   49 1   
    43   42   43 1   
    44   42   45 1   
    45   42   50 1   
    46   43   44 2   
    47   43   53 1   
    48   45   46 1   
    49   45   51 1   
    50   45   52 1   
    51   46   47 1   
    52   46   48 1   
    53   53   54 1   
    54   53   57 1   
    55   54   55 1   
    56   54   58 1   
    57   54   59 1   
    58   55   56 2   
    59   55   60 1   
    60   60   61 1   
    61   60   68 1   
    62   61   62 1   
    63   61   64 1   
    64   61   69 1   
    65   62   63 2   
    66   62   74 1   
    67   64   65 1   
    68   64   70 1   
    69   64   71 1   
    70   65   66 1   
    71   65   67 2   
    72   66   72 1   
    73   66   73 1   
    74   74   75 1   
    75   74   78 1   
    76   75   76 1   
    77   75   79 1   
    78   75   80 1   
    79   76   77 2   
    80   76   81 1   
    81   81   82 1   
    82   81   93 1   
    83   82   83 1   
    84   82   85 1   
    85   82   94 1   
    86   83   84 2   
    87   83  102 1   
    88   85   86 1   
    89   85   95 1   
    90   85   96 1   
    91   86   87 ar  
    92   86   88 ar  
    93   87   89 ar  
    94   87   97 1   
    95   88   90 ar  
    96   88   98 1   
    97   89   91 ar  
    98   89   99 1   
    99   90   91 ar  
   100   90  100 1   
   101   91   92 1   
   102   92  101 1   
   103  102  103 1   
   104  102  110 1   
   105  103  104 1   
   106  103  106 1   
   107  103  111 1   
   108  104  105 2   
   109  104  121 1   
   110  106  107 1   
   111  106  108 1   
   112  106  112 1   
   113  107  109 1   
   114  107  113 1   
   115  107  114 1   
   116  108  115 1   
   117  108  116 1   
   118  108  117 1   
   119  109  118 1   
   120  109  119 1   
   121  109  120 1   
   122  121  122 1   
   123  121  127 1   
   124  122  123 1   
   125  122  125 1   
   126  122  128 1   
   127  123  124 2   
   128  123  132 1   
   129  125  126 1   
   130  125  129 1   
   131  125  130 1   
   132  126  131 1   
   133  132  133 1   
   134  132  137 1   
   135  133  134 1   
   136  133  136 1   
   137  133  138 1   
   138  134  135 2   
   139  134  142 1   
   140  136  139 1   
   141  136  140 1   
   142  136  141 1   
   143  142  143 1   
   144  142  147 1   
   145  143  144 1   
   146  143  146 1   
   147  143  148 1   
   148  144  145 2   
   149  144  152 1   
   150  146  149 1   
   151  146  150 1   
   152  146  151 1   
   153  152  153 1   
   154  152  161 1   
   155  153  154 1   
   156  153  156 1   
   157  153  162 1   
   158  154  155 2   
   159  154  167 1   
   160  156  157 1   
   161  156  163 1   
   162  156  164 1   
   163  157  158 1   
   164  157  165 1   
   165  157  166 1   
   166  158  159 1   
   167  158  160 1   
   168  167  168 1   
   169  167  172 1   
   170  168  169 1   
   171  168  170 1   
   172  168  171 1   
   173  174  175 1   
   174  174  176 1   
   175  177  178 1   
   176  177  179 1   
   177  180  181 1   
   178  180  182 1   
   179  183  184 1   
   180  183  185 1   
   181  186  187 1   
   182  186  188 1   
@<TRIPOS>SUBSTRUCTURE
     1 MOL         1 TEMP              0 ****  ****    0 ROOT
