@<TRIPOS>MOLECULE
MOL
  182   178     1     0     0
SMALL
resp


@<TRIPOS>ATOM
      1 C1          0.4420   -4.0440    6.1760 c3        1 MOL     -0.364610
      2 C2          0.5090   -3.9580    4.6640 c         1 MOL      0.779763
      3 O1         -0.3940   -4.3380    3.9120 o         1 MOL     -0.614556
      4 H1          0.5280   -3.0440    6.6000 hc        1 MOL      0.099452
      5 H2         -0.5100   -4.4840    6.4740 hc        1 MOL      0.099452
      6 H3          1.2600   -4.6650    6.5410 hc        1 MOL      0.099452
      7 N1          1.6060   -3.4140    4.1890 n         1 MOL     -0.517459
      8 C3          2.0040   -3.2070    2.7830 c3        1 MOL     -0.038216
      9 C4          2.3250   -4.5110    2.0170 c         1 MOL      0.572504
     10 O2          2.7310   -5.4680    2.6210 o         1 MOL     -0.549402
     11 C5          3.2290   -2.2800    2.7210 c3        1 MOL     -0.149874
     12 C6          3.4580   -1.5680    1.5210 c         1 MOL      0.729431
     13 O3          3.9260   -0.4290    1.4760 o         1 MOL     -0.762641
     14 O4          3.0550   -2.0770    0.4470 o         1 MOL     -0.762641
     15 H4          2.3750   -3.2980    4.8310 hn        1 MOL      0.290026
     16 H5          1.1460   -2.7480    2.2940 h1        1 MOL      0.002394
     17 H6          4.0940   -2.8670    3.0210 hc        1 MOL      0.074518
     18 H7          3.2000   -1.5810    3.5560 hc        1 MOL      0.074518
     19 N2          2.1410   -4.5580    0.7180 n         1 MOL     -0.360454
     20 C7          2.6070   -5.6770   -0.1430 c3        1 MOL     -0.029299
     21 C8          3.7290   -5.4930   -1.1650 c         1 MOL      0.548671
     22 O5          4.2010   -6.4410   -1.8060 o         1 MOL     -0.547967
     23 C9          1.3080   -6.3680   -0.7400 c3        1 MOL     -0.136810
     24 C10         0.6830   -5.3600   -1.7200 c3        1 MOL      0.071389
     25 C11        -0.4630   -6.0770   -2.5060 c3        1 MOL     -0.291345
     26 C12        -1.1430   -4.8710   -3.1920 c3        1 MOL      0.297864
     27 N3         -2.0410   -5.3920   -4.2620 n4        1 MOL     -0.340898
     28 H8          1.7460   -3.6960    0.3620 hn        1 MOL      0.283483
     29 H9          2.9680   -6.5310    0.4340 h1        1 MOL      0.127105
     30 H10         0.7760   -6.4810    0.2150 hc        1 MOL      0.063624
     31 H11         1.6290   -7.2830   -1.2340 hc        1 MOL      0.063624
     32 H12         1.5260   -5.0130   -2.3170 hc        1 MOL      0.023100
     33 H13         0.2850   -4.4880   -1.2050 hc        1 MOL      0.023100
     34 H14        -1.1340   -6.5160   -1.7730 hc        1 MOL      0.093964
     35 H15        -0.0290   -6.8040   -3.1950 hc        1 MOL      0.093964
     36 H16        -0.4660   -4.1490   -3.6470 hx        1 MOL      0.011394
     37 H17        -1.7040   -4.2690   -2.4750 hx        1 MOL      0.011394
     38 H18        -2.6560   -6.0900   -3.8610 hn        1 MOL      0.268118
     39 H19        -2.6400   -4.6490   -4.6080 hn        1 MOL      0.268118
     40 H20        -1.4890   -5.8440   -4.9760 hn        1 MOL      0.268118
     41 N4          4.3170   -4.2970   -1.1600 n         1 MOL     -0.528649
     42 C13         5.4200   -3.9120   -2.0170 c3        1 MOL      0.409719
     43 C14         6.6490   -3.4000   -1.2000 c         1 MOL      0.268548
     44 O6          7.7620   -3.6710   -1.6610 o         1 MOL     -0.495971
     45 C15         5.0190   -2.8630   -3.0830 c3        1 MOL     -0.560752
     46 C16         4.2520   -1.6530   -2.5850 c         1 MOL      0.845443
     47 O7          3.1200   -1.4410   -3.0570 o         1 MOL     -0.721823
     48 O8          4.7130   -0.8600   -1.7620 o         1 MOL     -0.721823
     49 H21         3.8050   -3.5770   -0.6540 hn        1 MOL      0.265216
     50 H22         5.7540   -4.7900   -2.5620 h1        1 MOL      0.045204
     51 H23         4.4020   -3.4550   -3.7660 hc        1 MOL      0.144540
     52 H24         5.9620   -2.5110   -3.4920 hc        1 MOL      0.144540
     53 N5          6.4800   -2.6820   -0.0550 n         1 MOL     -0.153795
     54 C17         7.5740   -2.2270    0.7440 c3        1 MOL      0.119122
     55 C18         7.8390   -0.7050    0.7660 c         1 MOL      0.387601
     56 O9          8.8210   -0.2480    1.4030 o         1 MOL     -0.554069
     57 H25         5.5170   -2.5520    0.2470 hn        1 MOL      0.124067
     58 H26         8.5350   -2.6880    0.4960 h1        1 MOL      0.036806
     59 H27         7.3230   -2.6070    1.7390 h1        1 MOL      0.036806
     60 N6          7.0580    0.0940    0.0610 n         1 MOL     -0.131432
     61 C19         7.3090    1.5170   -0.1990 c3        1 MOL     -0.091255
     62 C20         6.0590    2.3830   -0.3890 c         1 MOL      0.514876
     63 O10         4.9350    1.8490   -0.4740 o         1 MOL     -0.497286
     64 C21         8.3420    1.5670   -1.3390 c3        1 MOL     -0.241040
     65 C22         7.8360    1.1930   -2.7030 c         1 MOL      0.496020
     66 N7          6.7040    0.6280   -2.9650 n         1 MOL     -0.608561
     67 O11         8.6400    1.2470   -3.6580 o         1 MOL     -0.578459
     68 H28         6.3350   -0.3310   -0.4990 hn        1 MOL      0.212071
     69 H29         7.9030    1.9800    0.5940 h1        1 MOL      0.093361
     70 H30         9.2370    0.9710   -1.1340 hc        1 MOL      0.123898
     71 H31         8.7820    2.5580   -1.3610 hc        1 MOL      0.123898
     72 H32         6.0820    0.2120   -2.2910 hn        1 MOL      0.320409
     73 H33         6.5700    0.3990   -3.9350 hn        1 MOL      0.320409
     74 N8          6.3670    3.6860   -0.4440 n         1 MOL     -0.414988
     75 C23         5.3130    4.6690   -0.5420 c3        1 MOL     -0.249896
     76 C24         4.2640    4.7400    0.5740 c         1 MOL      0.743281
     77 O12         4.6030    4.8110    1.7410 o         1 MOL     -0.533113
     78 H34         7.2890    4.0840   -0.3530 hn        1 MOL      0.363788
     79 H35         4.8030    4.5980   -1.5090 h1        1 MOL      0.103779
     80 H36         5.8700    5.6020   -0.4830 h1        1 MOL      0.103779
     81 N9          3.0050    4.8390    0.1110 n         1 MOL     -0.727970
     82 C25         1.8870    4.7530    0.9880 c3        1 MOL      0.440295
     83 C26         1.5960    3.2360    1.3690 c         1 MOL      0.440567
     84 O13         2.2430    2.3800    0.7210 o         1 MOL     -0.486412
     85 C27         0.7160    5.4180    0.3230 c3        1 MOL     -0.214866
     86 C28         0.9890    6.8350   -0.0670 ca        1 MOL      0.129203
     87 C29         0.9060    7.1990   -1.4490 ca        1 MOL     -0.172100
     88 C30         1.2200    7.8700    0.8800 ca        1 MOL     -0.172100
     89 C31         1.1210    8.5160   -1.8790 ca        1 MOL     -0.287661
     90 C32         1.6280    9.1360    0.4180 ca        1 MOL     -0.287661
     91 C33         1.5140    9.4740   -0.9590 ca        1 MOL      0.383811
     92 O14         1.8200   10.7120   -1.3480 oh        1 MOL     -0.461645
     93 H37         2.8070    4.9970   -0.8680 hn        1 MOL      0.293265
     94 H38         2.0030    5.3070    1.9280 h1        1 MOL      0.000210
     95 H39        -0.1720    5.3720    0.9520 hc        1 MOL      0.026567
     96 H40         0.5230    4.7860   -0.5380 hc        1 MOL      0.026567
     97 H41         0.5130    6.3950   -2.0480 ha        1 MOL      0.141213
     98 H42         1.2530    7.6550    1.9390 ha        1 MOL      0.141213
     99 H43         1.0020    8.8520   -2.8950 ha        1 MOL      0.168783
    100 H44         2.0110    9.7770    1.1900 ha        1 MOL      0.168783
    101 H45         1.9450   10.8170   -2.3020 ho        1 MOL      0.357833
    102 N10         0.6620    2.9820    2.2740 n         1 MOL     -0.481563
    103 C34         0.0930    1.7680    2.8510 c3        1 MOL      0.028549
    104 C35        -0.3320    0.5900    1.8130 c         1 MOL      0.346637
    105 O15         0.5940    0.0660    1.1850 o         1 MOL     -0.377895
    106 C36         0.9800    1.3620    4.0490 c3        1 MOL      0.120952
    107 C37         0.5650    0.0530    4.7360 c3        1 MOL     -0.191775
    108 C38         1.0550    2.5290    5.0510 c3        1 MOL     -0.128684
    109 C39        -0.8880   -0.2290    5.0470 c3        1 MOL     -0.050779
    110 H46         0.1600    3.8290    2.5170 hn        1 MOL      0.277319
    111 H47        -0.8250    2.1170    3.3290 h1        1 MOL      0.079212
    112 H48         1.9890    1.1630    3.6790 hc        1 MOL      0.060404
    113 H49         1.1170   -0.0330    5.6650 hc        1 MOL      0.072781
    114 H50         0.8490   -0.7870    4.1040 hc        1 MOL      0.072781
    115 H51         0.0210    2.7510    5.3200 hc        1 MOL      0.040875
    116 H52         1.6830    2.3290    5.9240 hc        1 MOL      0.040875
    117 H53         1.4590    3.4300    4.5910 hc        1 MOL      0.040875
    118 H54        -0.9940   -1.2340    5.4480 hc        1 MOL      0.012765
    119 H55        -1.2590    0.4960    5.7720 hc        1 MOL      0.012765
    120 H56        -1.4600   -0.1980    4.1220 hc        1 MOL      0.012765
    121 N11        -1.6170    0.3550    1.5910 n         1 MOL     -0.392232
    122 C40        -2.0650   -0.7190    0.6630 c3        1 MOL      0.121869
    123 C41        -3.5110   -0.8020    0.2520 c         1 MOL      0.571706
    124 O16        -3.8200   -1.7740   -0.4240 o         1 MOL     -0.528439
    125 C42        -1.6980   -2.0360    1.3540 c3        1 MOL     -0.097764
    126 O17        -0.8910   -2.7080    0.3950 oh        1 MOL     -0.608445
    127 H57        -2.2810    0.9380    2.0810 hn        1 MOL      0.273377
    128 H58        -1.5980   -0.6200   -0.3160 h1        1 MOL      0.036211
    129 H59        -2.5940   -2.5990    1.5920 h1        1 MOL      0.120042
    130 H60        -1.1110   -1.8660    2.2560 h1        1 MOL      0.120042
    131 H61        -0.9920   -3.6300    0.6840 ho        1 MOL      0.454722
    132 N12        -4.3250    0.2030    0.5920 n         1 MOL     -0.581408
    133 C43        -5.6890    0.1100    0.1740 c3        1 MOL      0.262664
    134 C44        -5.7720    0.7200   -1.2250 c         1 MOL      0.565282
    135 O18        -4.9600    1.5680   -1.5760 o         1 MOL     -0.590193
    136 C45        -6.4910    0.8760    1.2390 c3        1 MOL     -0.108998
    137 H62        -3.9940    1.0970    0.9210 hn        1 MOL      0.297269
    138 H63        -6.0350   -0.9180    0.1880 h1        1 MOL      0.039426
    139 H64        -6.3350    1.9470    1.1360 hc        1 MOL      0.036950
    140 H65        -7.5650    0.6900    1.1420 hc        1 MOL      0.036950
    141 H66        -6.1240    0.5830    2.2190 hc        1 MOL      0.036950
    142 N13        -6.7370    0.3180   -1.9750 n         1 MOL     -0.572569
    143 C46        -7.8770   -0.5300   -1.7130 c3        1 MOL      0.223802
    144 C47        -9.1230   -0.2370   -2.5760 c         1 MOL      0.330806
    145 O19        -8.9060   -0.1010   -3.8000 o         1 MOL     -0.503123
    146 C48        -7.4770   -2.0160   -1.9390 c3        1 MOL     -0.074433
    147 H67        -6.6450    0.6330   -2.9370 hn        1 MOL      0.342161
    148 H68        -8.2640   -0.5310   -0.6890 h1        1 MOL     -0.004693
    149 H69        -7.5040   -2.2560   -3.0000 hc        1 MOL      0.030339
    150 H70        -6.4190   -2.2230   -1.7950 hc        1 MOL      0.030339
    151 H71        -8.0230   -2.7470   -1.3280 hc        1 MOL      0.030339
    152 N14       -10.3830    0.0460   -2.1070 n         1 MOL     -0.360427
    153 C49       -10.8330   -0.1950   -0.7320 c3        1 MOL     -0.087971
    154 C50       -10.2890    0.9370    0.0940 c         1 MOL      0.433836
    155 O20        -9.9810    0.6940    1.2580 o         1 MOL     -0.535403
    156 C51       -12.3820   -0.1110   -0.9100 c3        1 MOL      0.078215
    157 C52       -12.9710   -0.5290    0.4300 c3        1 MOL     -0.248468
    158 C53       -14.4910   -0.6740    0.3220 c         1 MOL      0.705044
    159 O21       -15.2050    0.1630   -0.2490 o         1 MOL     -0.668041
    160 O22       -14.9260   -1.7310    0.8480 o         1 MOL     -0.668041
    161 H72       -11.0800    0.3200   -2.7820 hn        1 MOL      0.283371
    162 H73       -10.6260   -1.2040   -0.3810 h1        1 MOL      0.158453
    163 H74       -12.6980   -0.8800   -1.6130 hc        1 MOL      0.014110
    164 H75       -12.6910    0.8850   -1.2570 hc        1 MOL      0.014110
    165 H76       -12.7700    0.2800    1.1370 hc        1 MOL      0.060679
    166 H77       -12.4680   -1.4580    0.7030 hc        1 MOL      0.060679
    167 N15       -10.1530    2.2150   -0.2910 n         1 MOL     -0.215533
    168 C54        -9.6540    3.4100    0.4700 c3        1 MOL     -0.237384
    169 H78        -8.9150    3.0900    1.2040 h1        1 MOL      0.118103
    170 H79        -9.1960    4.1170   -0.2220 h1        1 MOL      0.118103
    171 H80       -10.4890    3.8910    0.9820 h1        1 MOL      0.118103
    172 H81       -10.5470    2.3420   -1.2140 hn        1 MOL      0.220066
    173 Ca1         2.6620    0.2420   -0.7400 Ca        1 MOL      1.725948
    174 O23         0.6010   -1.2460   -1.6050 oh        1 MOL     -0.812112
    175 H82        -0.0100   -1.5920   -0.9510 ho        1 MOL      0.402741
    176 H83         0.0430   -0.9290   -2.3170 ho        1 MOL      0.402741
    177 O24         3.3130    1.8550   -2.9400 oh        1 MOL     -0.812112
    178 H84         3.1080    2.7860   -2.9140 ho        1 MOL      0.402741
    179 H85         3.7480    1.7300   -3.7900 ho        1 MOL      0.402741
    180 O25         0.4690    1.6130   -1.9630 oh        1 MOL     -0.812112
    181 H86        -0.3530    1.8370   -1.5300 ho        1 MOL      0.402741
    182 H87         0.4120    2.0250   -2.8280 ho        1 MOL      0.402741
@<TRIPOS>BOND
     1    1    2 1   
     2    1    4 1   
     3    1    5 1   
     4    1    6 1   
     5    2    3 2   
     6    2    7 1   
     7    7    8 1   
     8    7   15 1   
     9    8    9 1   
    10    8   11 1   
    11    8   16 1   
    12    9   10 2   
    13    9   19 1   
    14   11   12 1   
    15   11   17 1   
    16   11   18 1   
    17   12   13 1   
    18   12   14 1   
    19   19   20 1   
    20   19   28 1   
    21   20   21 1   
    22   20   23 1   
    23   20   29 1   
    24   21   22 2   
    25   21   41 1   
    26   23   24 1   
    27   23   30 1   
    28   23   31 1   
    29   24   25 1   
    30   24   32 1   
    31   24   33 1   
    32   25   26 1   
    33   25   34 1   
    34   25   35 1   
    35   26   27 1   
    36   26   36 1   
    37   26   37 1   
    38   27   38 1   
    39   27   39 1   
    40   27   40 1   
    41   41   42 1   
    42   41   49 1   
    43   42   43 1   
    44   42   45 1   
    45   42   50 1   
    46   43   44 2   
    47   43   53 1   
    48   45   46 1   
    49   45   51 1   
    50   45   52 1   
    51   46   47 1   
    52   46   48 1   
    53   53   54 1   
    54   53   57 1   
    55   54   55 1   
    56   54   58 1   
    57   54   59 1   
    58   55   56 2   
    59   55   60 1   
    60   60   61 1   
    61   60   68 1   
    62   61   62 1   
    63   61   64 1   
    64   61   69 1   
    65   62   63 2   
    66   62   74 1   
    67   64   65 1   
    68   64   70 1   
    69   64   71 1   
    70   65   66 1   
    71   65   67 2   
    72   66   72 1   
    73   66   73 1   
    74   74   75 1   
    75   74   78 1   
    76   75   76 1   
    77   75   79 1   
    78   75   80 1   
    79   76   77 2   
    80   76   81 1   
    81   81   82 1   
    82   81   93 1   
    83   82   83 1   
    84   82   85 1   
    85   82   94 1   
    86   83   84 2   
    87   83  102 1   
    88   85   86 1   
    89   85   95 1   
    90   85   96 1   
    91   86   87 ar  
    92   86   88 ar  
    93   87   89 ar  
    94   87   97 1   
    95   88   90 ar  
    96   88   98 1   
    97   89   91 ar  
    98   89   99 1   
    99   90   91 ar  
   100   90  100 1   
   101   91   92 1   
   102   92  101 1   
   103  102  103 1   
   104  102  110 1   
   105  103  104 1   
   106  103  106 1   
   107  103  111 1   
   108  104  105 2   
   109  104  121 1   
   110  106  107 1   
   111  106  108 1   
   112  106  112 1   
   113  107  109 1   
   114  107  113 1   
   115  107  114 1   
   116  108  115 1   
   117  108  116 1   
   118  108  117 1   
   119  109  118 1   
   120  109  119 1   
   121  109  120 1   
   122  121  122 1   
   123  121  127 1   
   124  122  123 1   
   125  122  125 1   
   126  122  128 1   
   127  123  124 2   
   128  123  132 1   
   129  125  126 1   
   130  125  129 1   
   131  125  130 1   
   132  126  131 1   
   133  132  133 1   
   134  132  137 1   
   135  133  134 1   
   136  133  136 1   
   137  133  138 1   
   138  134  135 2   
   139  134  142 1   
   140  136  139 1   
   141  136  140 1   
   142  136  141 1   
   143  142  143 1   
   144  142  147 1   
   145  143  144 1   
   146  143  146 1   
   147  143  148 1   
   148  144  145 2   
   149  144  152 1   
   150  146  149 1   
   151  146  150 1   
   152  146  151 1   
   153  152  153 1   
   154  152  161 1   
   155  153  154 1   
   156  153  156 1   
   157  153  162 1   
   158  154  155 2   
   159  154  167 1   
   160  156  157 1   
   161  156  163 1   
   162  156  164 1   
   163  157  158 1   
   164  157  165 1   
   165  157  166 1   
   166  158  159 1   
   167  158  160 1   
   168  167  168 1   
   169  167  172 1   
   170  168  169 1   
   171  168  170 1   
   172  168  171 1   
   173  174  175 1   
   174  174  176 1   
   175  177  178 1   
   176  177  179 1   
   177  180  181 1   
   178  180  182 1   
@<TRIPOS>SUBSTRUCTURE
     1 MOL         1 TEMP              0 ****  ****    0 ROOT
