@<TRIPOS>MOLECULE
MOL
  187   181     1     0     0
SMALL
resp


@<TRIPOS>ATOM
      1 C1          8.6540    7.9750    0.1220 c3        1 MOL     -0.302815
      2 C2          8.3780    6.7430    1.0060 c         1 MOL      0.590866
      3 O1          8.4570    6.8610    2.2500 o         1 MOL     -0.589421
      4 H1          9.3930    7.7170   -0.6380 hc        1 MOL      0.082704
      5 H2          7.7290    8.2890   -0.3630 hc        1 MOL      0.082704
      6 H3          9.0370    8.7870    0.7390 hc        1 MOL      0.082704
      7 N1          7.7830    5.7400    0.4180 n         1 MOL     -0.310142
      8 C3          7.7600    5.3990   -1.0560 c3        1 MOL     -0.203569
      9 C4          8.0710    3.9300   -1.3520 c         1 MOL      0.589523
     10 O2          7.7940    3.0190   -0.5670 o         1 MOL     -0.547059
     11 C5          6.4330    5.7740   -1.7210 c3        1 MOL     -0.003152
     12 C6          5.2250    5.3180   -0.8750 c         1 MOL      0.614439
     13 O3          4.2890    6.1170   -0.7730 o         1 MOL     -0.637082
     14 O4          5.2280    4.1690   -0.3740 o         1 MOL     -0.637082
     15 H4          7.3200    5.1800    1.1260 hn        1 MOL      0.241446
     16 H5          8.5460    5.9680   -1.5630 h1        1 MOL      0.103802
     17 H6          6.3440    5.2200   -2.6630 hc        1 MOL      0.005124
     18 H7          6.3920    6.8550   -1.8650 hc        1 MOL      0.005124
     19 N2          8.7210    3.6810   -2.5100 n         1 MOL     -0.477212
     20 C7          8.7250    2.3590   -3.0380 c3        1 MOL      0.170654
     21 C8          9.6080    1.3950   -2.3040 c         1 MOL      0.567060
     22 O5         10.8500    1.5340   -2.2360 o         1 MOL     -0.556396
     23 C9          9.2100    2.4850   -4.5340 c3        1 MOL     -0.391449
     24 H8          8.7770    4.4300   -3.1880 hn        1 MOL      0.290719
     25 H9          7.7140    1.9540   -3.0930 h1        1 MOL      0.004203
     26 H10         8.5420    3.0700   -5.1750 hc        1 MOL      0.112344
     27 H11        10.2320    2.8600   -4.4760 hc        1 MOL      0.112344
     28 H12         9.2350    1.5150   -5.0340 hc        1 MOL      0.112344
     29 N3          9.0240    0.3350   -1.7300 n         1 MOL     -0.323058
     30 C10         9.7180   -0.6690   -0.9990 c3        1 MOL      0.006848
     31 C11         9.0720   -2.1310   -1.1520 c         1 MOL      0.496667
     32 O6          8.1310   -2.4030   -1.9180 o         1 MOL     -0.505479
     33 C12         9.8810   -0.2560    0.4270 c3        1 MOL     -0.164891
     34 C13         8.6440   -0.2140    1.2490 c         1 MOL      0.734979
     35 O7          7.9920    0.8790    1.4940 o         1 MOL     -0.698350
     36 O8          8.2560   -1.2930    1.7620 o         1 MOL     -0.698350
     37 H13         8.0260    0.3130   -1.8630 hn        1 MOL      0.115881
     38 H14        10.7320   -0.7710   -1.3850 h1        1 MOL      0.075540
     39 H15        10.3020    0.7420    0.4720 hc        1 MOL      0.051471
     40 H16        10.6210   -0.9460    0.8270 hc        1 MOL      0.051471
     41 N4          9.6700   -3.0910   -0.5370 n         1 MOL     -0.378901
     42 C14         9.3040   -4.5140   -0.5310 c3        1 MOL     -0.288508
     43 C15         8.0570   -4.9130    0.2960 c         1 MOL      0.576565
     44 O9          7.6220   -6.0560    0.1790 o         1 MOL     -0.546747
     45 H17        10.4010   -2.8220    0.1140 hn        1 MOL      0.296596
     46 H18        10.1810   -5.0500   -0.1810 h1        1 MOL      0.152142
     47 H19         9.1030   -4.8700   -1.5450 h1        1 MOL      0.152142
     48 N5          7.6170   -3.9630    1.1330 n         1 MOL     -0.345227
     49 C16         6.3050   -4.1290    1.8190 c3        1 MOL      0.132651
     50 C17         5.1040   -3.5550    1.0220 c         1 MOL      0.602134
     51 O10         5.2780   -2.8070    0.0510 o         1 MOL     -0.517980
     52 C18         6.4110   -3.6230    3.2380 c3        1 MOL     -0.116927
     53 C19         7.3880   -4.2810    4.1620 c         1 MOL      0.672900
     54 N6          7.4330   -3.8550    5.3910 n         1 MOL     -0.757493
     55 O11         8.1630   -5.1840    3.7740 o         1 MOL     -0.564430
     56 H20         7.9060   -3.0120    1.0060 hn        1 MOL      0.256244
     57 H21         6.1760   -5.2060    1.8610 h1        1 MOL      0.036556
     58 H22         5.4750   -3.7920    3.7660 hc        1 MOL      0.001209
     59 H23         6.5780   -2.5520    3.2660 hc        1 MOL      0.001209
     60 H24         6.9460   -3.0350    5.7190 hn        1 MOL      0.342967
     61 H25         7.9890   -4.3670    6.0640 hn        1 MOL      0.342967
     62 N7          3.8730   -3.9090    1.4780 n         1 MOL     -0.623931
     63 C20         2.5850   -3.5890    0.8780 c3        1 MOL      0.246832
     64 C21         1.8870   -4.8580    0.3130 c         1 MOL      0.529265
     65 O12         2.1270   -6.0690    0.6460 o         1 MOL     -0.567798
     66 H26         3.8160   -4.6330    2.1930 hn        1 MOL      0.319184
     67 H27         2.7490   -2.9590    0.0190 h1        1 MOL      0.017975
     68 H28         1.9180   -3.0280    1.5350 h1        1 MOL      0.017975
     69 N8          0.8200   -4.6510   -0.4270 n         1 MOL     -0.524215
     70 C22         0.2670   -3.4320   -1.0910 c3        1 MOL     -0.032377
     71 C23        -1.2840   -3.3010   -0.9130 c         1 MOL      0.522517
     72 O13        -1.9800   -4.3400   -0.9950 o         1 MOL     -0.503759
     73 C24         0.6620   -3.5020   -2.5420 c3        1 MOL      0.449147
     74 C25         2.0380   -3.4150   -2.8580 c3        1 MOL     -0.313972
     75 O14         0.1750   -4.7100   -3.1830 oh        1 MOL     -0.625575
     76 H29         0.5160   -5.5370   -0.8110 hn        1 MOL      0.357828
     77 H30         0.7220   -2.4840   -0.8070 h1        1 MOL      0.053849
     78 H31         0.2580   -2.6090   -3.0270 h1        1 MOL     -0.013561
     79 H32         0.5200   -4.7110   -4.0760 ho        1 MOL      0.390184
     80 H33         2.0900   -3.1660   -3.9160 hc        1 MOL      0.064920
     81 H34         2.5020   -2.6540   -2.2410 hc        1 MOL      0.064920
     82 H35         2.4520   -4.4210   -2.7400 hc        1 MOL      0.064920
     83 N9         -1.7360   -2.0500   -0.7750 n         1 MOL     -0.547868
     84 C26        -3.1330   -1.7420   -0.3710 c3        1 MOL      0.278507
     85 C27        -3.5100   -0.4280   -1.0660 c         1 MOL      0.497095
     86 O15        -2.6960    0.5330   -0.9860 o         1 MOL     -0.533870
     87 C28        -3.3090   -1.7290    1.1280 c3        1 MOL     -0.137882
     88 C29        -3.1570   -3.0820    1.7720 c3        1 MOL      0.187282
     89 C30        -4.7150   -1.1680    1.5570 c3        1 MOL     -0.092579
     90 C31        -3.1260   -3.0560    3.2730 c3        1 MOL     -0.162969
     91 H36        -1.0940   -1.2740   -0.8450 hn        1 MOL      0.275657
     92 H37        -3.8190   -2.5090   -0.7200 h1        1 MOL      0.042395
     93 H38        -2.5180   -1.0880    1.4910 hc        1 MOL      0.030142
     94 H39        -2.1940   -3.5000    1.5020 hc        1 MOL     -0.027301
     95 H40        -3.8410   -3.8410    1.3870 hc        1 MOL     -0.027301
     96 H41        -5.0790   -0.3130    0.9900 hc        1 MOL      0.043595
     97 H42        -5.4330   -1.9730    1.6890 hc        1 MOL      0.043595
     98 H43        -4.6980   -0.8470    2.6000 hc        1 MOL      0.043595
     99 H44        -4.1420   -2.9030    3.6640 hc        1 MOL      0.023284
    100 H45        -2.7260   -3.9730    3.7130 hc        1 MOL      0.023284
    101 H46        -2.4940   -2.2890    3.7210 hc        1 MOL      0.023284
    102 N10        -4.7270   -0.2860   -1.6380 n         1 MOL     -0.520660
    103 C32        -5.8330   -1.3110   -1.7130 c3        1 MOL      0.136673
    104 C33        -7.2860   -0.6820   -1.6280 c         1 MOL      0.395525
    105 O16        -7.4890    0.4670   -2.1350 o         1 MOL     -0.390584
    106 C34        -5.7600   -2.2610   -2.8990 c3        1 MOL     -0.035261
    107 C35        -5.5800   -1.4790   -4.2000 c         1 MOL      0.632229
    108 O17        -6.6970   -1.1450   -4.6860 o         1 MOL     -0.700299
    109 O18        -4.4470   -1.2660   -4.6830 o         1 MOL     -0.700299
    110 H47        -4.9220    0.6120   -2.0770 hn        1 MOL      0.419138
    111 H48        -5.7810   -1.9420   -0.8220 h1        1 MOL     -0.030990
    112 H49        -6.6420   -2.9030   -2.9850 hc        1 MOL     -0.017862
    113 H50        -4.9430   -2.9710   -2.7930 hc        1 MOL     -0.017862
    114 N11        -8.1900   -1.3570   -0.8730 n         1 MOL     -0.719754
    115 C36        -9.5580   -0.9490   -0.5780 c3        1 MOL      0.558868
    116 C37       -10.0370   -1.1910    0.8820 c         1 MOL      0.170439
    117 O19        -9.7080   -2.1560    1.4940 o         1 MOL     -0.499701
    118 C38       -10.4940   -1.8650   -1.5010 c3        1 MOL      0.027167
    119 C39       -11.8230   -1.3420   -1.5370 ca        1 MOL     -0.126651
    120 C40       -12.9300   -1.7370   -0.7300 ca        1 MOL     -0.002585
    121 C41       -11.9720   -0.1760   -2.2880 ca        1 MOL     -0.002585
    122 C42       -14.1700   -1.0370   -0.7780 ca        1 MOL     -0.291900
    123 C43       -13.1700    0.5420   -2.2670 ca        1 MOL     -0.291900
    124 C44       -14.2470    0.1380   -1.5440 ca        1 MOL      0.066372
    125 H51        -7.8260   -2.2120   -0.4650 hn        1 MOL      0.333924
    126 H52        -9.6220    0.1050   -0.8710 h1        1 MOL      0.011185
    127 H53       -10.4620   -2.8770   -1.0850 hc        1 MOL      0.027352
    128 H54       -10.1220   -1.9710   -2.5200 hc        1 MOL      0.027352
    129 H55       -12.7880   -2.5340   -0.0140 ha        1 MOL      0.085961
    130 H56       -11.0710    0.2460   -2.7080 ha        1 MOL      0.085961
    131 H57       -14.9840   -1.2400   -0.1020 ha        1 MOL      0.138924
    132 H58       -13.2310    1.4780   -2.8090 ha        1 MOL      0.138924
    133 H59       -15.1380    0.7470   -1.5380 ha        1 MOL      0.055950
    134 N12       -10.8610   -0.3090    1.4320 n         1 MOL      0.139227
    135 C45       -11.3810    0.9710    0.9140 c3        1 MOL     -0.540613
    136 C46       -10.4100    2.1520    0.8460 c         1 MOL      0.726603
    137 O20       -10.6610    3.0930    0.1210 o         1 MOL     -0.529465
    138 C47       -12.5740    1.3380    1.8850 c3        1 MOL     -0.017674
    139 C48       -12.0920    0.6500    3.1660 c3        1 MOL     -0.045083
    140 C49       -11.4390   -0.5820    2.7260 c3        1 MOL      0.076443
    141 H60       -11.8180    0.8830   -0.0760 h1        1 MOL      0.224305
    142 H61       -12.6400    2.4140    2.0060 hc        1 MOL      0.039513
    143 H62       -13.5320    1.0260    1.4680 hc        1 MOL      0.039513
    144 H63       -11.3960    1.3140    3.6740 hc        1 MOL      0.019025
    145 H64       -12.9180    0.3760    3.8200 hc        1 MOL      0.019025
    146 H65       -10.6930   -0.9350    3.4340 h1        1 MOL      0.004549
    147 H66       -12.1400   -1.4070    2.6080 h1        1 MOL      0.004549
    148 N13        -9.3110    2.1820    1.6320 n         1 MOL     -0.519342
    149 C50        -8.5400    3.3820    1.9360 c3        1 MOL      0.100554
    150 C51        -7.5970    3.1400    3.0930 c         1 MOL      0.452267
    151 O21        -7.1120    2.0820    3.3400 o         1 MOL     -0.543549
    152 C52        -7.7040    3.8580    0.7910 c3        1 MOL     -0.166711
    153 C53        -6.9280    2.8360   -0.0520 c3        1 MOL     -0.021895
    154 C54        -6.0260    3.3940   -1.0660 c         1 MOL      0.640696
    155 O22        -6.5150    4.0350   -2.0050 o         1 MOL     -0.670993
    156 O23        -4.8380    3.1470   -0.9990 o         1 MOL     -0.670993
    157 H67        -9.2000    1.3310    2.1660 hn        1 MOL      0.275138
    158 H68        -9.1600    4.2460    2.2150 h1        1 MOL      0.052168
    159 H69        -7.0310    4.6670    1.0720 hc        1 MOL      0.053427
    160 H70        -8.3820    4.2370    0.0260 hc        1 MOL      0.053427
    161 H71        -7.6900    2.2050   -0.4870 hc        1 MOL      0.028923
    162 H72        -6.3580    2.2640    0.6780 hc        1 MOL      0.028923
    163 N14        -7.2130    4.1110    3.9310 n         1 MOL     -0.292734
    164 C55        -7.4860    5.5470    3.8500 c3        1 MOL     -0.118683
    165 H73        -7.0460    5.9490    2.9380 h1        1 MOL      0.062786
    166 H74        -8.5640    5.7120    3.8370 h1        1 MOL      0.062786
    167 H75        -7.0520    6.0490    4.7150 h1        1 MOL      0.062786
    168 H76        -6.8160    3.7470    4.7930 hn        1 MOL      0.251070
    169 Ca1         5.7220    1.7420    0.5460 Ca        1 MOL      1.707294
    170 O24         6.8130    3.3120    2.6670 oh        1 MOL     -0.812006
    171 H77         6.3530    4.0900    2.9770 ho        1 MOL      0.394994
    172 H78         7.3850    3.0630    3.3970 ho        1 MOL      0.394994
    173 O25         3.7810    2.4310    2.3470 oh        1 MOL     -0.812006
    174 H79         3.6830    1.8110    3.0690 ho        1 MOL      0.394994
    175 H80         3.8780    3.2830    2.7840 ho        1 MOL      0.394994
    176 O26         5.6650   -0.0200    2.6840 oh        1 MOL     -0.812006
    177 H81         5.3310   -0.5190    3.4300 ho        1 MOL      0.394994
    178 H82         6.6070   -0.2110    2.6710 ho        1 MOL      0.394994
    179 O27         3.2990    0.6260    0.1290 oh        1 MOL     -0.812006
    180 H83         2.4900    0.2660    0.4930 ho        1 MOL      0.394994
    181 H84         3.2840    0.3640   -0.7840 ho        1 MOL      0.394994
    182 O28         5.0220    1.8310   -2.0660 oh        1 MOL     -0.812006
    183 H85         5.2940    2.6190   -2.5500 ho        1 MOL      0.394994
    184 H86         4.8320    1.1960   -2.7540 ho        1 MOL      0.394994
    185 O29         6.0230   -0.4610   -0.8510 oh        1 MOL     -0.812006
    186 H87         5.8010   -1.3380   -0.5490 ho        1 MOL      0.394994
    187 H88         5.7820   -0.4590   -1.7690 ho        1 MOL      0.394994
@<TRIPOS>BOND
     1    1    2 1   
     2    1    4 1   
     3    1    5 1   
     4    1    6 1   
     5    2    3 2   
     6    2    7 1   
     7    7    8 1   
     8    7   15 1   
     9    8    9 1   
    10    8   11 1   
    11    8   16 1   
    12    9   10 2   
    13    9   19 1   
    14   11   12 1   
    15   11   17 1   
    16   11   18 1   
    17   12   13 1   
    18   12   14 1   
    19   19   20 1   
    20   19   24 1   
    21   20   21 1   
    22   20   23 1   
    23   20   25 1   
    24   21   22 2   
    25   21   29 1   
    26   23   26 1   
    27   23   27 1   
    28   23   28 1   
    29   29   30 1   
    30   29   37 1   
    31   30   31 1   
    32   30   33 1   
    33   30   38 1   
    34   31   32 2   
    35   31   41 1   
    36   33   34 1   
    37   33   39 1   
    38   33   40 1   
    39   34   35 1   
    40   34   36 1   
    41   41   42 1   
    42   41   45 1   
    43   42   43 1   
    44   42   46 1   
    45   42   47 1   
    46   43   44 2   
    47   43   48 1   
    48   48   49 1   
    49   48   56 1   
    50   49   50 1   
    51   49   52 1   
    52   49   57 1   
    53   50   51 2   
    54   50   62 1   
    55   52   53 1   
    56   52   58 1   
    57   52   59 1   
    58   53   54 1   
    59   53   55 2   
    60   54   60 1   
    61   54   61 1   
    62   62   63 1   
    63   62   66 1   
    64   63   64 1   
    65   63   67 1   
    66   63   68 1   
    67   64   65 2   
    68   64   69 1   
    69   69   70 1   
    70   69   76 1   
    71   70   71 1   
    72   70   73 1   
    73   70   77 1   
    74   71   72 2   
    75   71   83 1   
    76   73   74 1   
    77   73   75 1   
    78   73   78 1   
    79   74   80 1   
    80   74   81 1   
    81   74   82 1   
    82   75   79 1   
    83   83   84 1   
    84   83   91 1   
    85   84   85 1   
    86   84   87 1   
    87   84   92 1   
    88   85   86 2   
    89   85  102 1   
    90   87   88 1   
    91   87   89 1   
    92   87   93 1   
    93   88   90 1   
    94   88   94 1   
    95   88   95 1   
    96   89   96 1   
    97   89   97 1   
    98   89   98 1   
    99   90   99 1   
   100   90  100 1   
   101   90  101 1   
   102  102  103 1   
   103  102  110 1   
   104  103  104 1   
   105  103  106 1   
   106  103  111 1   
   107  104  105 2   
   108  104  114 1   
   109  106  107 1   
   110  106  112 1   
   111  106  113 1   
   112  107  108 1   
   113  107  109 1   
   114  114  115 1   
   115  114  125 1   
   116  115  116 1   
   117  115  118 1   
   118  115  126 1   
   119  116  117 2   
   120  116  134 1   
   121  118  119 1   
   122  118  127 1   
   123  118  128 1   
   124  119  120 ar  
   125  119  121 ar  
   126  120  122 ar  
   127  120  129 1   
   128  121  123 ar  
   129  121  130 1   
   130  122  124 ar  
   131  122  131 1   
   132  123  124 ar  
   133  123  132 1   
   134  124  133 1   
   135  134  135 1   
   136  134  140 1   
   137  135  136 1   
   138  135  138 1   
   139  135  141 1   
   140  136  137 2   
   141  136  148 1   
   142  138  139 1   
   143  138  142 1   
   144  138  143 1   
   145  139  140 1   
   146  139  144 1   
   147  139  145 1   
   148  140  146 1   
   149  140  147 1   
   150  148  149 1   
   151  148  157 1   
   152  149  150 1   
   153  149  152 1   
   154  149  158 1   
   155  150  151 2   
   156  150  163 1   
   157  152  153 1   
   158  152  159 1   
   159  152  160 1   
   160  153  154 1   
   161  153  161 1   
   162  153  162 1   
   163  154  155 1   
   164  154  156 1   
   165  163  164 1   
   166  163  168 1   
   167  164  165 1   
   168  164  166 1   
   169  164  167 1   
   170  170  171 1   
   171  170  172 1   
   172  173  174 1   
   173  173  175 1   
   174  176  177 1   
   175  176  178 1   
   176  179  180 1   
   177  179  181 1   
   178  182  183 1   
   179  182  184 1   
   180  185  186 1   
   181  185  187 1   
@<TRIPOS>SUBSTRUCTURE
     1 MOL         1 TEMP              0 ****  ****    0 ROOT
