@<TRIPOS>MOLECULE
MOL
  181   177     1     0     0
SMALL
resp


@<TRIPOS>ATOM
      1 C1         10.9680   -5.9400   -1.3490 c3        1 MOL     -0.258773
      2 C2          9.7470   -4.9400   -1.2800 c         1 MOL      0.624192
      3 O1          8.8430   -5.0730   -2.0740 o         1 MOL     -0.597252
      4 H1         10.9440   -6.4770   -2.2980 hc        1 MOL      0.066190
      5 H2         11.9010   -5.3820   -1.2720 hc        1 MOL      0.066190
      6 H3         10.9020   -6.6520   -0.5270 hc        1 MOL      0.066190
      7 N1          9.6880   -3.9840   -0.3790 n         1 MOL     -0.290577
      8 C3         10.3810   -3.9350    0.8820 c3        1 MOL      0.026044
      9 C4         11.4520   -2.7740    0.8690 c         1 MOL      0.381353
     10 O2         12.1960   -2.5740    1.8770 o         1 MOL     -0.526566
     11 C5          9.5050   -3.7970    2.1000 c3        1 MOL     -0.180065
     12 C6          8.5400   -2.6530    2.1220 c         1 MOL      0.857546
     13 O3          8.4010   -1.9540    1.1050 o         1 MOL     -0.787942
     14 O4          7.7270   -2.6330    3.0900 o         1 MOL     -0.787942
     15 H4          8.8930   -3.3600   -0.4200 hn        1 MOL      0.198534
     16 H5         10.9110   -4.8910    1.0110 h1        1 MOL      0.050298
     17 H6         10.1370   -3.6330    2.9720 hc        1 MOL      0.061963
     18 H7          8.9450   -4.7310    2.2000 hc        1 MOL      0.061963
     19 N2         11.4440   -1.9440   -0.2070 n         1 MOL     -0.304042
     20 C7         12.4160   -0.8230   -0.4940 c3        1 MOL      0.227561
     21 C8         11.8100    0.5510   -0.4100 c         1 MOL      0.353585
     22 O5         12.5470    1.5290   -0.5260 o         1 MOL     -0.537630
     23 C9         13.0890   -1.1430   -1.8590 c3        1 MOL     -0.321990
     24 H8         10.7690   -2.1660   -0.9250 hn        1 MOL      0.169268
     25 H9         13.1390   -0.9060    0.3180 h1        1 MOL      0.046258
     26 H10        13.8320   -1.9340   -1.7560 hc        1 MOL      0.089347
     27 H11        12.4500   -1.4500   -2.6880 hc        1 MOL      0.089347
     28 H12        13.6720   -0.2600   -2.1220 hc        1 MOL      0.089347
     29 N3         10.4850    0.6190   -0.3910 n         1 MOL     -0.127203
     30 C10         9.7680    1.8810   -0.6210 c3        1 MOL     -0.029709
     31 C11         8.5510    1.8870    0.3000 c         1 MOL      0.479299
     32 O6          8.2930    0.8810    0.9240 o         1 MOL     -0.530166
     33 C12         9.3710    2.0130   -2.0910 c3        1 MOL     -0.234377
     34 C13         8.7370    0.6800   -2.6530 c         1 MOL      0.720897
     35 O7          9.1030    0.3600   -3.8200 o         1 MOL     -0.690374
     36 O8          7.8640    0.0920   -2.0030 o         1 MOL     -0.690374
     37 H13         9.9650   -0.2280   -0.2280 hn        1 MOL      0.155095
     38 H14        10.3830    2.7450   -0.3390 h1        1 MOL      0.068755
     39 H15        10.2790    2.4020   -2.5730 hc        1 MOL      0.070550
     40 H16         8.6730    2.8300   -2.2840 hc        1 MOL      0.070550
     41 N4          7.8250    3.0530    0.3460 n         1 MOL     -0.353418
     42 C14         6.6210    3.2720    1.1190 c3        1 MOL     -0.333212
     43 C15         5.4290    2.4190    0.8360 c         1 MOL      0.918831
     44 O9          5.4950    1.6350   -0.1310 o         1 MOL     -0.644931
     45 H17         8.0300    3.8680   -0.2120 hn        1 MOL      0.295438
     46 H18         6.2630    4.2630    0.8570 h1        1 MOL      0.132866
     47 H19         6.9160    3.1940    2.1640 h1        1 MOL      0.132866
     48 N5          4.3720    2.5410    1.6380 n         1 MOL     -0.864383
     49 C16         3.0180    2.1370    1.3350 c3        1 MOL      0.436730
     50 C17         2.1360    3.3760    1.1780 c         1 MOL      0.555698
     51 O10         2.6020    4.5300    1.3180 o         1 MOL     -0.533499
     52 C18         2.5400    1.1250    2.3870 c3        1 MOL     -0.331168
     53 C19         3.4070   -0.1490    2.3270 c         1 MOL      0.804284
     54 N6          3.6880   -0.6980    3.4780 n         1 MOL     -0.844271
     55 O11         3.8400   -0.5570    1.2330 o         1 MOL     -0.691668
     56 H20         4.5290    3.1280    2.4520 hn        1 MOL      0.336768
     57 H21         3.0330    1.6370    0.3720 h1        1 MOL      0.037425
     58 H22         1.4890    0.8710    2.2850 hc        1 MOL      0.088016
     59 H23         2.7040    1.5550    3.3740 hc        1 MOL      0.088016
     60 H24         3.2910   -0.3430    4.3330 hn        1 MOL      0.393456
     61 H25         4.3320   -1.4800    3.4990 hn        1 MOL      0.393456
     62 N7          0.8480    3.1830    0.8660 n         1 MOL     -0.689339
     63 C20        -0.1000    4.2390    0.7670 c3        1 MOL      0.393508
     64 C21         0.0670    5.1760   -0.5160 c         1 MOL      0.390227
     65 O12         1.1050    5.1710   -1.1150 o         1 MOL     -0.478836
     66 H26         0.4860    2.2500    0.7680 hn        1 MOL      0.361854
     67 H27        -0.1040    4.8710    1.6520 h1        1 MOL     -0.019720
     68 H28        -1.1320    3.8840    0.7170 h1        1 MOL     -0.019720
     69 N8         -1.0250    5.8320   -0.9890 n         1 MOL     -0.357728
     70 C22        -2.3140    6.1270   -0.2800 c3        1 MOL     -0.130179
     71 C23        -3.3830    5.0700   -0.3410 c         1 MOL      0.532097
     72 O13        -4.2610    5.0190    0.4870 o         1 MOL     -0.571106
     73 C24        -2.9580    7.4310   -0.7140 c3        1 MOL      0.404751
     74 C25        -2.0060    8.6380   -0.6390 c3        1 MOL     -0.430054
     75 O14        -3.4460    7.4090   -2.0410 oh        1 MOL     -0.590791
     76 H29        -0.8170    6.1800   -1.9130 hn        1 MOL      0.281804
     77 H30        -2.0750    6.2140    0.7780 h1        1 MOL      0.095544
     78 H31        -3.7830    7.5700   -0.0140 h1        1 MOL     -0.019794
     79 H32        -4.1580    8.0410   -2.0680 ho        1 MOL      0.390053
     80 H33        -2.5420    9.5390   -0.9510 hc        1 MOL      0.102011
     81 H34        -1.6870    8.7410    0.4040 hc        1 MOL      0.102011
     82 H35        -1.1190    8.4490   -1.2450 hc        1 MOL      0.102011
     83 N9         -3.2580    4.0330   -1.1880 n         1 MOL     -0.088226
     84 C26        -4.1830    2.8390   -1.3360 c3        1 MOL      0.019579
     85 C27        -3.6630    1.4930   -0.7960 c         1 MOL      0.411538
     86 O15        -2.5320    1.0670   -1.1710 o         1 MOL     -0.555715
     87 C28        -4.5250    2.7050   -2.8250 c3        1 MOL      0.150741
     88 C29        -4.9520    4.0390   -3.4200 c3        1 MOL     -0.188577
     89 C30        -5.5710    1.6040   -3.1320 c3        1 MOL     -0.119500
     90 C31        -6.1040    4.7390   -2.7020 c3        1 MOL     -0.124217
     91 H36        -2.4120    3.9680   -1.7430 hn        1 MOL      0.125303
     92 H37        -5.0570    3.1290   -0.7440 h1        1 MOL      0.129187
     93 H38        -3.6230    2.3970   -3.3630 hc        1 MOL     -0.008342
     94 H39        -5.2280    3.7770   -4.4410 hc        1 MOL      0.035023
     95 H40        -4.1270    4.7440   -3.4570 hc        1 MOL      0.035023
     96 H41        -5.6840    1.5540   -4.2130 hc        1 MOL      0.061314
     97 H42        -5.1050    0.6860   -2.7560 hc        1 MOL      0.061314
     98 H43        -6.4520    1.8300   -2.5270 hc        1 MOL      0.061314
     99 H44        -6.9990    4.1620   -2.9350 hc        1 MOL      0.016810
    100 H45        -5.9760    4.9110   -1.6290 hc        1 MOL      0.016810
    101 H46        -6.2090    5.7520   -3.0880 hc        1 MOL      0.016810
    102 N10        -4.4300    0.6690   -0.0570 n         1 MOL     -0.306677
    103 C32        -5.6650    1.0220    0.6110 c3        1 MOL     -0.646764
    104 C33        -6.7090   -0.1340    0.8110 c         1 MOL      1.156179
    105 O16        -6.3800   -1.2460    1.2290 o         1 MOL     -0.562582
    106 C34        -5.4640    1.6870    2.0280 c3        1 MOL      0.317749
    107 C35        -4.4340    0.9080    2.7960 c         1 MOL      0.432550
    108 O17        -4.7770    0.2530    3.7920 o         1 MOL     -0.643270
    109 O18        -3.2370    0.9790    2.4740 o         1 MOL     -0.643270
    110 H47        -4.1260   -0.2900    0.0730 hn        1 MOL      0.340089
    111 H48        -6.1930    1.7300   -0.0300 h1        1 MOL      0.099475
    112 H49        -6.3940    1.7730    2.5880 hc        1 MOL     -0.064350
    113 H50        -5.1050    2.7140    1.9760 hc        1 MOL     -0.064350
    114 N11        -7.9730    0.1170    0.4900 n         1 MOL     -0.825111
    115 C36        -9.1230   -0.7760    0.6200 c3        1 MOL      0.480149
    116 C37       -10.0340   -0.8730   -0.6650 c         1 MOL      0.198520
    117 O19       -10.1650    0.0830   -1.3890 o         1 MOL     -0.464216
    118 C38       -10.0300   -0.4290    1.8180 c3        1 MOL     -0.031330
    119 C39        -9.2990   -0.2630    3.1830 ca        1 MOL      0.077359
    120 C40        -9.3390    0.9710    3.8480 ca        1 MOL     -0.226563
    121 C41        -8.6530   -1.2920    3.9170 ca        1 MOL     -0.226563
    122 C42        -8.8330    1.1600    5.1380 ca        1 MOL      0.014349
    123 C43        -8.1200   -1.1430    5.2550 ca        1 MOL      0.014349
    124 C44        -8.2170    0.1280    5.8430 ca        1 MOL     -0.292096
    125 H51        -8.2620    0.9980    0.1050 hn        1 MOL      0.330890
    126 H52        -8.6680   -1.7390    0.8490 h1        1 MOL     -0.030140
    127 H53       -10.8300   -1.1680    1.8520 hc        1 MOL     -0.009351
    128 H54       -10.6630    0.4390    1.6530 hc        1 MOL     -0.009351
    129 H55        -9.7920    1.8330    3.3810 ha        1 MOL      0.107198
    130 H56        -8.5100   -2.2860    3.5090 ha        1 MOL      0.107198
    131 H57        -8.9260    2.1350    5.5980 ha        1 MOL      0.088733
    132 H58        -7.6470   -2.0260    5.6730 ha        1 MOL      0.088733
    133 H59        -7.7420    0.3020    6.7970 ha        1 MOL      0.150203
    134 N12       -10.7460   -2.0300   -0.8650 n         1 MOL      0.014840
    135 C45       -10.7390   -3.3200   -0.1100 c3        1 MOL      0.120407
    136 C46        -9.2890   -3.9610   -0.0880 c         1 MOL      0.310306
    137 O20        -8.7660   -4.3860    0.9900 o         1 MOL     -0.554804
    138 C47       -11.6920   -4.2910   -0.7970 c3        1 MOL     -0.116087
    139 C48       -12.6770   -3.3570   -1.5970 c3        1 MOL     -0.037662
    140 C49       -11.8240   -2.0760   -1.8670 c3        1 MOL     -0.115318
    141 H60       -11.1230   -3.0830    0.8770 h1        1 MOL      0.047093
    142 H61       -11.2450   -4.9580   -1.5380 hc        1 MOL      0.051823
    143 H62       -12.2030   -4.7410    0.0560 hc        1 MOL      0.051823
    144 H63       -13.1230   -3.8690   -2.4530 hc        1 MOL      0.025806
    145 H64       -13.4310   -2.9950   -0.9020 hc        1 MOL      0.025806
    146 H65       -11.3200   -2.1580   -2.8320 h1        1 MOL      0.069456
    147 H66       -12.4340   -1.1640   -1.8960 h1        1 MOL      0.069456
    148 N13        -8.5610   -3.8480   -1.1550 n         1 MOL     -0.331609
    149 C50        -7.1520   -4.2480   -1.3310 c3        1 MOL      0.243702
    150 C51        -7.0000   -5.8380   -1.2960 c         1 MOL      0.326641
    151 O21        -7.3000   -6.5700   -2.2620 o         1 MOL     -0.558446
    152 C52        -6.4980   -3.5780   -2.5640 c3        1 MOL      0.154939
    153 C53        -6.5090   -2.0450   -2.5570 c3        1 MOL     -0.189655
    154 C54        -6.1440   -1.6140   -3.9450 c         1 MOL      0.725075
    155 O22        -7.0150   -1.5360   -4.7850 o         1 MOL     -0.729015
    156 O23        -4.9110   -1.4190   -4.2550 o         1 MOL     -0.729015
    157 H67        -9.1000   -3.5560   -1.9570 hn        1 MOL      0.288425
    158 H68        -6.5580   -3.8040   -0.5310 h1        1 MOL      0.034081
    159 H69        -7.1000   -3.9480   -3.3950 hc        1 MOL     -0.035950
    160 H70        -5.4670   -3.9060   -2.5760 hc        1 MOL     -0.035950
    161 H71        -5.8300   -1.7300   -1.7720 hc        1 MOL     -0.034983
    162 H72        -7.5410   -1.7500   -2.3460 hc        1 MOL     -0.034983
    163 N14        -6.5820   -6.4310   -0.1500 n         1 MOL     -0.194282
    164 C55        -6.0310   -5.8190    1.0800 c3        1 MOL     -0.430134
    165 H73        -6.7790   -5.1610    1.5240 h1        1 MOL      0.162627
    166 H74        -5.7700   -6.6030    1.7910 h1        1 MOL      0.162627
    167 H75        -5.1410   -5.2410    0.8320 h1        1 MOL      0.162627
    168 H76        -6.7010   -7.4340   -0.1780 hn        1 MOL      0.234689
    169 Ca1         6.3280   -0.8250    0.2000 Ca        1 MOL      1.767146
    170 O24         7.5070   -2.6270   -1.7300 oh        1 MOL     -0.798418
    171 H77         7.6780   -1.9600   -2.4010 ho        1 MOL      0.399624
    172 H78         7.8540   -3.4340   -2.1040 ho        1 MOL      0.399624
    173 O25         6.5660   -0.2190    2.8630 oh        1 MOL     -0.798418
    174 H79         7.1490   -0.8190    3.3200 ho        1 MOL      0.399624
    175 H80         6.3920    0.4720    3.5000 ho        1 MOL      0.399624
    176 O26         4.7590   -3.4680    0.3370 oh        1 MOL     -0.798418
    177 H81         4.0300   -3.9960   -0.0040 ho        1 MOL      0.399624
    178 H82         4.6410   -3.4810    1.2860 ho        1 MOL      0.399624
    179 O27         4.5070   -0.7830   -1.8200 oh        1 MOL     -0.798418
    180 H83         3.6730   -0.7160   -1.3590 ho        1 MOL      0.399624
    181 H84         4.3030   -1.2800   -2.6230 ho        1 MOL      0.399624
@<TRIPOS>BOND
     1    1    2 1   
     2    1    4 1   
     3    1    5 1   
     4    1    6 1   
     5    2    3 2   
     6    2    7 1   
     7    7    8 1   
     8    7   15 1   
     9    8    9 1   
    10    8   11 1   
    11    8   16 1   
    12    9   10 2   
    13    9   19 1   
    14   11   12 1   
    15   11   17 1   
    16   11   18 1   
    17   12   13 1   
    18   12   14 1   
    19   19   20 1   
    20   19   24 1   
    21   20   21 1   
    22   20   23 1   
    23   20   25 1   
    24   21   22 2   
    25   21   29 1   
    26   23   26 1   
    27   23   27 1   
    28   23   28 1   
    29   29   30 1   
    30   29   37 1   
    31   30   31 1   
    32   30   33 1   
    33   30   38 1   
    34   31   32 2   
    35   31   41 1   
    36   33   34 1   
    37   33   39 1   
    38   33   40 1   
    39   34   35 1   
    40   34   36 1   
    41   41   42 1   
    42   41   45 1   
    43   42   43 1   
    44   42   46 1   
    45   42   47 1   
    46   43   44 2   
    47   43   48 1   
    48   48   49 1   
    49   48   56 1   
    50   49   50 1   
    51   49   52 1   
    52   49   57 1   
    53   50   51 2   
    54   50   62 1   
    55   52   53 1   
    56   52   58 1   
    57   52   59 1   
    58   53   54 1   
    59   53   55 2   
    60   54   60 1   
    61   54   61 1   
    62   62   63 1   
    63   62   66 1   
    64   63   64 1   
    65   63   67 1   
    66   63   68 1   
    67   64   65 2   
    68   64   69 1   
    69   69   70 1   
    70   69   76 1   
    71   70   71 1   
    72   70   73 1   
    73   70   77 1   
    74   71   72 2   
    75   71   83 1   
    76   73   74 1   
    77   73   75 1   
    78   73   78 1   
    79   74   80 1   
    80   74   81 1   
    81   74   82 1   
    82   75   79 1   
    83   83   84 1   
    84   83   91 1   
    85   84   85 1   
    86   84   87 1   
    87   84   92 1   
    88   85   86 2   
    89   85  102 1   
    90   87   88 1   
    91   87   89 1   
    92   87   93 1   
    93   88   90 1   
    94   88   94 1   
    95   88   95 1   
    96   89   96 1   
    97   89   97 1   
    98   89   98 1   
    99   90   99 1   
   100   90  100 1   
   101   90  101 1   
   102  102  103 1   
   103  102  110 1   
   104  103  104 1   
   105  103  106 1   
   106  103  111 1   
   107  104  105 2   
   108  104  114 1   
   109  106  107 1   
   110  106  112 1   
   111  106  113 1   
   112  107  108 1   
   113  107  109 1   
   114  114  115 1   
   115  114  125 1   
   116  115  116 1   
   117  115  118 1   
   118  115  126 1   
   119  116  117 2   
   120  116  134 1   
   121  118  119 1   
   122  118  127 1   
   123  118  128 1   
   124  119  120 ar  
   125  119  121 ar  
   126  120  122 ar  
   127  120  129 1   
   128  121  123 ar  
   129  121  130 1   
   130  122  124 ar  
   131  122  131 1   
   132  123  124 ar  
   133  123  132 1   
   134  124  133 1   
   135  134  135 1   
   136  134  140 1   
   137  135  136 1   
   138  135  138 1   
   139  135  141 1   
   140  136  137 2   
   141  136  148 1   
   142  138  139 1   
   143  138  142 1   
   144  138  143 1   
   145  139  140 1   
   146  139  144 1   
   147  139  145 1   
   148  140  146 1   
   149  140  147 1   
   150  148  149 1   
   151  148  157 1   
   152  149  150 1   
   153  149  152 1   
   154  149  158 1   
   155  150  151 2   
   156  150  163 1   
   157  152  153 1   
   158  152  159 1   
   159  152  160 1   
   160  153  154 1   
   161  153  161 1   
   162  153  162 1   
   163  154  155 1   
   164  154  156 1   
   165  163  164 1   
   166  163  168 1   
   167  164  165 1   
   168  164  166 1   
   169  164  167 1   
   170  170  171 1   
   171  170  172 1   
   172  173  174 1   
   173  173  175 1   
   174  176  177 1   
   175  176  178 1   
   176  179  180 1   
   177  179  181 1   
@<TRIPOS>SUBSTRUCTURE
     1 MOL         1 TEMP              0 ****  ****    0 ROOT
