@<TRIPOS>MOLECULE
MOL
  195   189     1     0     0
SMALL
resp


@<TRIPOS>ATOM
      1 C1          4.2930   -7.6890   -3.7440 c3        1 MOL     -0.300823
      2 C2          3.4680   -7.4580   -2.4970 c         1 MOL      0.718761
      3 O1          3.1500   -8.4900   -1.9030 o         1 MOL     -0.606385
      4 H1          4.3740   -6.7560   -4.3030 hc        1 MOL      0.077248
      5 H2          5.2880   -8.0320   -3.4620 hc        1 MOL      0.077248
      6 H3          3.8100   -8.4430   -4.3650 hc        1 MOL      0.077248
      7 N1          2.9930   -6.2930   -2.0840 n         1 MOL     -0.624475
      8 C3          2.2170   -6.0710   -0.8520 c3        1 MOL      0.200364
      9 C4          1.2590   -4.9330   -1.1030 c         1 MOL      0.458776
     10 O2          1.5570   -4.0330   -1.8950 o         1 MOL     -0.512121
     11 C5          3.1610   -5.7950    0.2810 c3        1 MOL     -0.012642
     12 C6          4.3620   -4.9400   -0.1130 c         1 MOL      0.707011
     13 O3          4.3000   -3.7260    0.0460 o         1 MOL     -0.716749
     14 O4          5.4180   -5.4960   -0.5020 o         1 MOL     -0.716749
     15 H4          3.1180   -5.4820   -2.6720 hn        1 MOL      0.347215
     16 H5          1.6270   -6.9300   -0.5320 h1        1 MOL      0.016170
     17 H6          3.5470   -6.7570    0.6250 hc        1 MOL     -0.009180
     18 H7          2.5980   -5.3360    1.0960 hc        1 MOL     -0.009180
     19 N2          0.1640   -4.8530   -0.3240 n         1 MOL     -0.566080
     20 C7         -0.8900   -3.8670   -0.4700 c3        1 MOL      0.290869
     21 C8         -1.1430   -3.0410    0.7850 c         1 MOL      0.622660
     22 O5         -2.3030   -2.7370    1.0720 o         1 MOL     -0.576196
     23 C9         -2.0820   -4.5280   -1.1230 c3        1 MOL     -0.221207
     24 C10        -3.0090   -3.5580   -1.8090 c3        1 MOL      0.118293
     25 C11        -4.4710   -3.9540   -1.8070 c3        1 MOL     -0.225130
     26 C12        -5.1650   -3.8950   -0.4450 c3        1 MOL     -0.062745
     27 N3         -5.0250   -2.5890    0.1500 n4        1 MOL     -0.040724
     28 H8         -0.0960   -5.6820    0.1840 hn        1 MOL      0.277992
     29 H9         -0.5600   -3.1310   -1.2160 h1        1 MOL      0.052396
     30 H10        -2.6480   -5.0020   -0.3200 hc        1 MOL      0.062427
     31 H11        -1.7460   -5.2680   -1.8470 hc        1 MOL      0.062427
     32 H12        -2.6650   -3.4890   -2.8430 hc        1 MOL      0.021674
     33 H13        -2.8480   -2.5810   -1.3570 hc        1 MOL      0.021674
     34 H14        -4.5530   -5.0140   -2.0470 hc        1 MOL      0.065349
     35 H15        -5.0180   -3.3330   -2.5200 hc        1 MOL      0.065349
     36 H16        -4.6380   -4.6480    0.1350 hx        1 MOL      0.083729
     37 H17        -6.2080   -4.1910   -0.5500 hx        1 MOL      0.083729
     38 H18        -4.0950   -2.3810    0.4700 hn        1 MOL      0.202453
     39 H19        -5.4540   -1.8860   -0.4380 hn        1 MOL      0.202453
     40 H20        -5.5780   -2.5000    0.9900 hn        1 MOL      0.202453
     41 N4         -0.1770   -2.6390    1.5380 n         1 MOL     -0.810800
     42 C13        -0.3280   -1.7670    2.7450 c3        1 MOL      0.680991
     43 C14        -0.4640   -0.2450    2.4540 c         1 MOL      0.223845
     44 O6         -0.0260    0.2030    1.3870 o         1 MOL     -0.439773
     45 C15         0.8470   -2.0440    3.6820 c3        1 MOL     -0.328856
     46 C16         2.2160   -1.7900    3.0550 c         1 MOL      0.702656
     47 O7          3.2670   -1.7630    3.7640 o         1 MOL     -0.747902
     48 O8          2.3970   -1.8450    1.8170 o         1 MOL     -0.747902
     49 H21         0.7450   -2.8010    1.1790 hn        1 MOL      0.455644
     50 H22        -1.1930   -2.0700    3.3170 h1        1 MOL     -0.068997
     51 H23         0.7780   -3.0510    4.1020 hc        1 MOL      0.078707
     52 H24         0.7420   -1.5250    4.6420 hc        1 MOL      0.078707
     53 N5         -1.1080    0.6230    3.2500 n         1 MOL     -0.310281
     54 C17        -1.7030    0.4190    4.6000 c3        1 MOL     -0.208172
     55 C18        -2.9590   -0.3800    4.5580 c         1 MOL      0.654813
     56 O9         -2.9360   -1.6130    4.8390 o         1 MOL     -0.518521
     57 H25        -1.1980    1.5720    2.8970 hn        1 MOL      0.277182
     58 H26        -1.9210    1.3600    5.0880 h1        1 MOL      0.102459
     59 H27        -0.9160   -0.0290    5.2030 h1        1 MOL      0.102459
     60 N6         -4.0910    0.2560    4.2100 n         1 MOL     -0.461307
     61 C19        -5.3120   -0.4800    3.8380 c3        1 MOL     -0.105937
     62 C20        -6.0840    0.0630    2.5880 c         1 MOL      0.647011
     63 O10        -6.3900   -0.7360    1.6920 o         1 MOL     -0.587132
     64 C21        -6.2570   -0.6780    5.0990 c3        1 MOL     -0.277764
     65 C22        -6.5060    0.5790    6.0120 c         1 MOL      0.689481
     66 O11        -6.7950    1.7140    5.5700 o         1 MOL     -0.651024
     67 O12        -6.5570    0.4270    7.2680 o         1 MOL     -0.651024
     68 H28        -4.0800    1.1850    3.7950 hn        1 MOL      0.254599
     69 H29        -4.9830   -1.4670    3.5140 h1        1 MOL      0.109618
     70 H30        -5.8310   -1.4030    5.7860 hc        1 MOL      0.094665
     71 H31        -7.2220   -1.0510    4.7620 hc        1 MOL      0.094665
     72 N7         -6.4360    1.3710    2.5200 n         1 MOL     -0.231468
     73 C23        -7.4540    1.9770    1.6590 c3        1 MOL     -0.352057
     74 C24        -7.0210    2.0630    0.2140 c         1 MOL      0.599151
     75 O13        -6.1630    2.8670   -0.1520 o         1 MOL     -0.518512
     76 H32        -6.1270    1.9710    3.2690 hn        1 MOL      0.220888
     77 H33        -7.6700    2.9820    1.9990 h1        1 MOL      0.164541
     78 H34        -8.4140    1.4700    1.7510 h1        1 MOL      0.164541
     79 N8         -7.6660    1.2310   -0.6800 n         1 MOL     -0.452473
     80 C25        -7.2860    1.0980   -2.0980 c3        1 MOL     -0.159835
     81 C26        -5.8700    0.5090   -2.2690 c         1 MOL      0.199973
     82 O14        -5.4620   -0.5200   -1.6400 o         1 MOL     -0.315813
     83 C27        -8.2720    0.3380   -3.0140 c3        1 MOL      0.352851
     84 C28        -8.4900   -1.1210   -2.3750 c3        1 MOL     -0.308642
     85 O15        -9.4980    0.9520   -3.0280 oh        1 MOL     -0.551963
     86 H35        -8.4790    0.7560   -0.3000 hn        1 MOL      0.312035
     87 H36        -7.2380    2.1260   -2.4450 h1        1 MOL      0.132806
     88 H37        -7.9540    0.3530   -4.0570 h1        1 MOL      0.023073
     89 H38        -9.2830    1.8540   -3.2420 ho        1 MOL      0.363830
     90 H39        -9.3630   -1.5520   -2.8520 hc        1 MOL      0.100722
     91 H40        -7.6060   -1.7450   -2.5520 hc        1 MOL      0.100722
     92 H41        -8.7270   -1.1140   -1.3150 hc        1 MOL      0.100722
     93 N9         -5.1590    0.9270   -3.2970 n         1 MOL     -0.221796
     94 C29        -3.8390    0.3030   -3.6610 c3        1 MOL      0.007081
     95 C30        -2.7450    0.8390   -2.7430 c         1 MOL      0.357403
     96 O16        -1.8710    0.0760   -2.3210 o         1 MOL     -0.537092
     97 C31        -3.5590    0.5160   -5.1630 c3        1 MOL      0.005754
     98 C32        -4.6700   -0.0710   -6.1100 c3        1 MOL     -0.020272
     99 C33        -2.1540    0.2230   -5.5450 c3        1 MOL     -0.151957
    100 C34        -5.0090   -1.5400   -5.8570 c3        1 MOL     -0.034568
    101 H42        -5.4190    1.8440   -3.6380 hn        1 MOL      0.231044
    102 H43        -3.9250   -0.7860   -3.5490 h1        1 MOL      0.120914
    103 H44        -3.5880    1.6000   -5.2860 hc        1 MOL      0.019463
    104 H45        -4.3750    0.1050   -7.1360 hc        1 MOL      0.011195
    105 H46        -5.6050    0.4850   -6.0320 hc        1 MOL      0.011195
    106 H47        -1.4630    0.8140   -4.9430 hc        1 MOL      0.063474
    107 H48        -1.8560   -0.8150   -5.4190 hc        1 MOL      0.063474
    108 H49        -1.8360    0.5740   -6.5290 hc        1 MOL      0.063474
    109 H50        -4.0950   -2.1190   -5.7410 hc        1 MOL      0.010002
    110 H51        -5.5200   -1.5770   -4.8940 hc        1 MOL      0.010002
    111 H52        -5.6750   -2.0360   -6.5630 hc        1 MOL      0.010002
    112 N10        -2.8520    2.0110   -2.2360 n         1 MOL     -0.282952
    113 C35        -1.9850    2.4580   -1.1670 c3        1 MOL      0.057875
    114 C36        -1.5140    3.8290   -1.6070 c         1 MOL      0.475168
    115 O17        -2.1940    4.6740   -2.2150 o         1 MOL     -0.530179
    116 C37        -2.7060    2.3760    0.1650 c3        1 MOL      0.171882
    117 C38        -3.1960    0.9610    0.4940 c3        1 MOL     -0.017732
    118 O18        -1.9020    2.8070    1.1760 oh        1 MOL     -0.637543
    119 H53        -3.5730    2.6200   -2.5890 hn        1 MOL      0.242863
    120 H54        -1.0530    1.8990   -1.0660 h1        1 MOL      0.119699
    121 H55        -3.5070    3.1270    0.1640 h1        1 MOL      0.027220
    122 H56        -2.5320    2.9730    1.8850 ho        1 MOL      0.424525
    123 H57        -2.3710    0.2490    0.5830 hc        1 MOL      0.004912
    124 H58        -3.7520    0.9100    1.4300 hc        1 MOL      0.004912
    125 H59        -3.9380    0.5330   -0.1870 hc        1 MOL      0.004912
    126 N11        -0.2450    4.1050   -1.3200 n         1 MOL     -0.409285
    127 C39         0.1830    5.5320   -1.2920 c3        1 MOL     -0.088425
    128 C40         1.7410    5.6850   -1.4900 c         1 MOL      0.624351
    129 O19         2.1420    6.5090   -2.2580 o         1 MOL     -0.556996
    130 C41        -0.3100    6.0980    0.0520 c3        1 MOL      0.447160
    131 C42        -0.2030    7.6300    0.1980 c3        1 MOL     -0.554662
    132 O20         0.4590    5.6200    1.0600 oh        1 MOL     -0.618554
    133 H60         0.3630    3.3320   -1.1010 hn        1 MOL      0.260013
    134 H61        -0.3500    6.1400   -2.0200 h1        1 MOL      0.108579
    135 H62        -1.3460    5.8080    0.2150 h1        1 MOL      0.030544
    136 H63         0.0680    4.8680    1.5130 ho        1 MOL      0.367548
    137 H64         0.8460    7.9240    0.1010 hc        1 MOL      0.145590
    138 H65        -0.9590    8.0840   -0.4340 hc        1 MOL      0.145590
    139 H66        -0.5130    7.9630    1.1880 hc        1 MOL      0.145590
    140 N12         2.6230    4.9080   -0.8080 n         1 MOL     -0.457753
    141 C43         4.0700    4.7360   -0.9650 c3        1 MOL     -0.061086
    142 C44         4.4890    3.3240   -0.5730 c         1 MOL      0.645116
    143 O21         4.0150    2.8370    0.4580 o         1 MOL     -0.541619
    144 C45         4.7950    5.8230   -0.1700 c3        1 MOL     -0.136875
    145 C46         6.3300    5.8400   -0.4500 c3        1 MOL      0.035169
    146 C47         7.1420    6.7110    0.5190 c3        1 MOL     -0.248722
    147 C48         8.5400    6.7130    0.0860 c3        1 MOL      0.221123
    148 N13         9.3180    7.3830    1.1320 n4        1 MOL     -0.240431
    149 H67         2.1790    4.1960   -0.2540 hn        1 MOL      0.272089
    150 H68         4.2670    4.9060   -2.0240 h1        1 MOL      0.116158
    151 H69         4.6300    5.5590    0.8750 hc        1 MOL      0.093620
    152 H70         4.4160    6.8220   -0.3300 hc        1 MOL      0.093620
    153 H71         6.4280    6.0420   -1.5180 hc        1 MOL      0.021503
    154 H72         6.7200    4.8200   -0.4790 hc        1 MOL      0.021503
    155 H73         6.9890    6.2020    1.4640 hc        1 MOL      0.087905
    156 H74         6.7060    7.7160    0.5220 hc        1 MOL      0.087905
    157 H75         8.8420    7.3340   -0.7660 hx        1 MOL      0.034990
    158 H76         8.8660    5.6830   -0.0840 hx        1 MOL      0.034990
    159 H77        10.3130    7.2730    0.9820 hn        1 MOL      0.258009
    160 H78         9.1810    8.3780    1.0200 hn        1 MOL      0.258009
    161 H79         9.0930    7.0620    2.0610 hn        1 MOL      0.258009
    162 N14         5.2030    2.6600   -1.4440 n         1 MOL     -0.623515
    163 C49         5.6330    1.2610   -1.2080 c3        1 MOL      0.513027
    164 C50         4.4510    0.2960   -1.3970 c         1 MOL      0.417149
    165 O22         4.2310   -0.5410   -0.5300 o         1 MOL     -0.545042
    166 C51         6.9060    0.9440   -2.0550 c3        1 MOL     -0.152012
    167 C52         7.5090   -0.4700   -1.9330 c3        1 MOL     -0.154129
    168 C53         7.8600   -0.7090   -0.4060 c         1 MOL      0.657342
    169 O23         9.0540   -0.6170   -0.0570 o         1 MOL     -0.670964
    170 O24         6.9760   -0.9430    0.4360 o         1 MOL     -0.670964
    171 H80         5.6490    3.1700   -2.2010 hn        1 MOL      0.260193
    172 H81         5.7180    1.1590   -0.1270 h1        1 MOL     -0.082939
    173 H82         7.6600    1.6910   -1.8120 hc        1 MOL      0.029995
    174 H83         6.6200    0.9410   -3.1070 hc        1 MOL      0.029995
    175 H84         8.3270   -0.5460   -2.6430 hc        1 MOL      0.052007
    176 H85         6.8030   -1.2060   -2.3110 hc        1 MOL      0.052007
    177 N15         3.6060    0.3520   -2.4100 n         1 MOL     -0.374811
    178 C54         3.8250    0.9330   -3.7870 c3        1 MOL     -0.007042
    179 H86         2.9880    1.5830   -4.0430 h1        1 MOL      0.043294
    180 H87         4.7490    1.5110   -3.7950 h1        1 MOL      0.043294
    181 H88         3.8930    0.1260   -4.5160 h1        1 MOL      0.043294
    182 H89         2.8260   -0.2670   -2.2750 hn        1 MOL      0.330072
    183 Ca1         4.9720   -1.9100    1.7700 Ca        1 MOL      1.712909
    184 O25         6.4360   -1.8580    3.9750 oh        1 MOL     -0.825742
    185 H90         7.2690   -1.4080    4.1290 ho        1 MOL      0.402799
    186 H91         5.9540   -1.7780    4.7990 ho        1 MOL      0.402799
    187 O26         4.2420    0.7850    2.3120 oh        1 MOL     -0.825742
    188 H92         3.9960    1.4690    1.6720 ho        1 MOL      0.402799
    189 H93         3.9030    1.1200    3.1420 ho        1 MOL      0.402799
    190 O27         4.3320   -4.3530    3.2240 oh        1 MOL     -0.825742
    191 H94         4.1140   -3.9000    4.0440 ho        1 MOL      0.402799
    192 H95         3.9230   -5.2150    3.3180 ho        1 MOL      0.402799
    193 O28         6.8460   -3.8690    1.2490 oh        1 MOL     -0.825742
    194 H96         6.4090   -4.3940    0.5820 ho        1 MOL      0.402799
    195 H97         7.1020   -4.5010    1.9290 ho        1 MOL      0.402799
@<TRIPOS>BOND
     1    1    2 1   
     2    1    4 1   
     3    1    5 1   
     4    1    6 1   
     5    2    3 2   
     6    2    7 1   
     7    7    8 1   
     8    7   15 1   
     9    8    9 1   
    10    8   11 1   
    11    8   16 1   
    12    9   10 2   
    13    9   19 1   
    14   11   12 1   
    15   11   17 1   
    16   11   18 1   
    17   12   13 1   
    18   12   14 1   
    19   19   20 1   
    20   19   28 1   
    21   20   21 1   
    22   20   23 1   
    23   20   29 1   
    24   21   22 2   
    25   21   41 1   
    26   23   24 1   
    27   23   30 1   
    28   23   31 1   
    29   24   25 1   
    30   24   32 1   
    31   24   33 1   
    32   25   26 1   
    33   25   34 1   
    34   25   35 1   
    35   26   27 1   
    36   26   36 1   
    37   26   37 1   
    38   27   38 1   
    39   27   39 1   
    40   27   40 1   
    41   41   42 1   
    42   41   49 1   
    43   42   43 1   
    44   42   45 1   
    45   42   50 1   
    46   43   44 2   
    47   43   53 1   
    48   45   46 1   
    49   45   51 1   
    50   45   52 1   
    51   46   47 1   
    52   46   48 1   
    53   53   54 1   
    54   53   57 1   
    55   54   55 1   
    56   54   58 1   
    57   54   59 1   
    58   55   56 2   
    59   55   60 1   
    60   60   61 1   
    61   60   68 1   
    62   61   62 1   
    63   61   64 1   
    64   61   69 1   
    65   62   63 2   
    66   62   72 1   
    67   64   65 1   
    68   64   70 1   
    69   64   71 1   
    70   65   66 1   
    71   65   67 1   
    72   72   73 1   
    73   72   76 1   
    74   73   74 1   
    75   73   77 1   
    76   73   78 1   
    77   74   75 2   
    78   74   79 1   
    79   79   80 1   
    80   79   86 1   
    81   80   81 1   
    82   80   83 1   
    83   80   87 1   
    84   81   82 2   
    85   81   93 1   
    86   83   84 1   
    87   83   85 1   
    88   83   88 1   
    89   84   90 1   
    90   84   91 1   
    91   84   92 1   
    92   85   89 1   
    93   93   94 1   
    94   93  101 1   
    95   94   95 1   
    96   94   97 1   
    97   94  102 1   
    98   95   96 2   
    99   95  112 1   
   100   97   98 1   
   101   97   99 1   
   102   97  103 1   
   103   98  100 1   
   104   98  104 1   
   105   98  105 1   
   106   99  106 1   
   107   99  107 1   
   108   99  108 1   
   109  100  109 1   
   110  100  110 1   
   111  100  111 1   
   112  112  113 1   
   113  112  119 1   
   114  113  114 1   
   115  113  116 1   
   116  113  120 1   
   117  114  115 2   
   118  114  126 1   
   119  116  117 1   
   120  116  118 1   
   121  116  121 1   
   122  117  123 1   
   123  117  124 1   
   124  117  125 1   
   125  118  122 1   
   126  126  127 1   
   127  126  133 1   
   128  127  128 1   
   129  127  130 1   
   130  127  134 1   
   131  128  129 2   
   132  128  140 1   
   133  130  131 1   
   134  130  132 1   
   135  130  135 1   
   136  131  137 1   
   137  131  138 1   
   138  131  139 1   
   139  132  136 1   
   140  140  141 1   
   141  140  149 1   
   142  141  142 1   
   143  141  144 1   
   144  141  150 1   
   145  142  143 2   
   146  142  162 1   
   147  144  145 1   
   148  144  151 1   
   149  144  152 1   
   150  145  146 1   
   151  145  153 1   
   152  145  154 1   
   153  146  147 1   
   154  146  155 1   
   155  146  156 1   
   156  147  148 1   
   157  147  157 1   
   158  147  158 1   
   159  148  159 1   
   160  148  160 1   
   161  148  161 1   
   162  162  163 1   
   163  162  171 1   
   164  163  164 1   
   165  163  166 1   
   166  163  172 1   
   167  164  165 2   
   168  164  177 1   
   169  166  167 1   
   170  166  173 1   
   171  166  174 1   
   172  167  168 1   
   173  167  175 1   
   174  167  176 1   
   175  168  169 1   
   176  168  170 1   
   177  177  178 1   
   178  177  182 1   
   179  178  179 1   
   180  178  180 1   
   181  178  181 1   
   182  184  185 1   
   183  184  186 1   
   184  187  188 1   
   185  187  189 1   
   186  190  191 1   
   187  190  192 1   
   188  193  194 1   
   189  193  195 1   
@<TRIPOS>SUBSTRUCTURE
     1 MOL         1 TEMP              0 ****  ****    0 ROOT
