@<TRIPOS>MOLECULE
MOL
  175   173     1     0     0
SMALL
resp


@<TRIPOS>ATOM
      1 C1         -7.7910    7.6760    1.9720 c3        1 MOL     -0.355182
      2 C2         -8.6380    6.7620    1.1060 c         1 MOL      0.706502
      3 O1         -8.9040    7.1440   -0.0140 o         1 MOL     -0.573567
      4 H1         -8.1890    7.6840    2.9870 hc        1 MOL      0.078718
      5 H2         -6.7630    7.3120    1.9880 hc        1 MOL      0.078718
      6 H3         -7.8130    8.6860    1.5650 hc        1 MOL      0.078718
      7 N1         -9.0800    5.5800    1.5700 n         1 MOL     -0.541258
      8 C3         -9.7470    4.6360    0.6840 c3        1 MOL      0.180434
      9 C4         -8.8380    3.8430   -0.2640 c         1 MOL      0.479905
     10 O2         -9.2740    3.3460   -1.3630 o         1 MOL     -0.493442
     11 C5        -10.7210    3.7070    1.4250 c3        1 MOL     -0.353222
     12 C6        -11.3110    2.6670    0.4460 c         1 MOL      0.824686
     13 O3        -12.2100    3.1740   -0.2770 o         1 MOL     -0.750492
     14 O4        -11.1340    1.4450    0.4590 o         1 MOL     -0.750492
     15 H4         -8.7370    5.2870    2.4740 hn        1 MOL      0.288789
     16 H5        -10.3250    5.2960    0.0320 h1        1 MOL      0.076285
     17 H6        -11.5420    4.2730    1.8580 hc        1 MOL      0.039765
     18 H7        -10.1780    3.2540    2.2580 hc        1 MOL      0.039765
     19 N2         -7.4900    3.8440    0.0490 n         1 MOL     -0.532526
     20 C7         -6.4740    3.1020   -0.7630 c3        1 MOL      0.306073
     21 C8         -5.3960    2.5640    0.1320 c         1 MOL      0.583502
     22 O5         -4.9080    3.3530    0.9820 o         1 MOL     -0.569455
     23 C9         -6.0100    4.0210   -1.8770 c3        1 MOL     -0.415857
     24 H8         -7.2120    4.4250    0.8170 hn        1 MOL      0.256318
     25 H9         -7.0890    2.3040   -1.1670 h1        1 MOL      0.039062
     26 H10        -5.3870    4.7480   -1.3540 hc        1 MOL      0.116641
     27 H11        -5.2580    3.5070   -2.4650 hc        1 MOL      0.116641
     28 H12        -6.8680    4.2680   -2.4950 hc        1 MOL      0.116641
     29 N3         -4.9810    1.3090    0.0860 n         1 MOL     -0.548565
     30 C10        -5.3270    0.1980   -0.8570 c3        1 MOL      0.027440
     31 C11        -5.4680   -1.2120   -0.2840 c         1 MOL      0.462834
     32 O6         -4.5990   -1.6580    0.4680 o         1 MOL     -0.490653
     33 C12        -4.3350    0.1320   -2.0570 c3        1 MOL     -0.038242
     34 C13        -2.8500   -0.1600   -1.7200 c         1 MOL      0.648912
     35 O7         -2.2230    0.5180   -0.9390 o         1 MOL     -0.710651
     36 O8         -2.2850   -1.1950   -2.2550 o         1 MOL     -0.710651
     37 H13        -4.0750    1.1490    0.5050 hn        1 MOL      0.327198
     38 H14        -6.2950    0.3820   -1.3050 h1        1 MOL      0.043817
     39 H15        -4.4770    0.9720   -2.7270 hc        1 MOL      0.007620
     40 H16        -4.6320   -0.6900   -2.7080 hc        1 MOL      0.007620
     41 N4         -6.4700   -2.0420   -0.6340 n         1 MOL     -0.344194
     42 C14        -6.6400   -3.4430   -0.2080 c3        1 MOL      0.033072
     43 C15        -6.6070   -4.2780   -1.4770 c         1 MOL      0.513538
     44 O9         -7.6310   -4.3560   -2.1350 o         1 MOL     -0.551532
     45 H17        -7.0760   -1.6060   -1.3240 hn        1 MOL      0.302774
     46 H18        -7.6610   -3.5140    0.1660 h1        1 MOL      0.050335
     47 H19        -5.8850   -3.7190    0.5260 h1        1 MOL      0.050335
     48 N5         -5.4660   -4.6550   -2.0350 n         1 MOL     -0.503244
     49 C16        -4.0820   -4.3740   -1.4870 c3        1 MOL     -0.004647
     50 C17        -3.8180   -5.1540   -0.1760 c         1 MOL      0.424554
     51 O10        -3.7690   -6.4120   -0.1170 o         1 MOL     -0.530038
     52 C18        -3.0830   -4.6940   -2.6370 c3        1 MOL     -0.013806
     53 C19        -1.5850   -4.2810   -2.1730 c         1 MOL      0.451396
     54 N6         -0.6730   -4.5080   -3.0240 n         1 MOL     -0.589917
     55 O11        -1.3280   -3.7810   -1.0570 o         1 MOL     -0.581940
     56 H20        -5.5190   -4.9910   -2.9950 hn        1 MOL      0.314926
     57 H21        -4.0830   -3.3100   -1.2640 h1        1 MOL      0.098413
     58 H22        -3.3210   -4.2030   -3.5750 hc        1 MOL      0.036856
     59 H23        -3.0180   -5.7240   -2.9670 hc        1 MOL      0.036856
     60 H24        -0.8240   -4.8480   -3.9640 hn        1 MOL      0.330930
     61 H25         0.2300   -4.2190   -2.6840 hn        1 MOL      0.330930
     62 N7         -3.5520   -4.3100    0.8560 n         1 MOL      0.100037
     63 C20        -3.2740   -4.8060    2.1690 c3        1 MOL     -0.341952
     64 C21        -1.8070   -5.1840    2.5120 c         1 MOL      0.665956
     65 O12        -1.6120   -5.8650    3.4890 o         1 MOL     -0.587520
     66 H26        -3.6130   -3.3210    0.6540 hn        1 MOL      0.101399
     67 H27        -3.8500   -5.7240    2.2850 h1        1 MOL      0.096522
     68 H28        -3.4360   -3.9810    2.8590 h1        1 MOL      0.096522
     69 N8         -0.7950   -4.7340    1.7310 n         1 MOL     -0.378088
     70 C22         0.6090   -5.0230    2.0300 c3        1 MOL      0.003994
     71 C23         1.4540   -3.7240    1.8420 c         1 MOL      0.332458
     72 O13         1.0120   -2.7680    1.2430 o         1 MOL     -0.474371
     73 C24         1.1780   -6.2110    1.1290 c3        1 MOL      0.450925
     74 C25         0.7030   -7.5430    1.6640 c3        1 MOL     -0.565429
     75 O14         0.8330   -6.0000   -0.2470 oh        1 MOL     -0.609263
     76 H29        -1.0980   -4.2560    0.8950 hn        1 MOL      0.274299
     77 H30         0.8770   -5.3150    3.0380 h1        1 MOL      0.035779
     78 H31         2.2520   -6.1040    1.2110 h1        1 MOL     -0.052478
     79 H32         1.5010   -5.4590   -0.6790 ho        1 MOL      0.407565
     80 H33         1.1870   -8.2990    1.0360 hc        1 MOL      0.144730
     81 H34         0.9700   -7.6550    2.7210 hc        1 MOL      0.144730
     82 H35        -0.3750   -7.6340    1.5060 hc        1 MOL      0.144730
     83 N9          2.6640   -3.7380    2.4020 n         1 MOL     -0.209612
     84 C26         3.6890   -2.7020    2.3040 c3        1 MOL     -0.171299
     85 C27         4.4520   -2.8960    0.8810 c         1 MOL      0.363733
     86 O15         5.5150   -3.5440    0.8390 o         1 MOL     -0.580922
     87 C28         4.4670   -2.6840    3.6100 c3        1 MOL      0.294616
     88 C29         5.6820   -1.6780    3.6840 c3        1 MOL     -0.142490
     89 C30         3.5820   -2.4510    4.8010 c3        1 MOL     -0.357060
     90 C31         5.2920   -0.2210    3.3220 c3        1 MOL     -0.093699
     91 H36         2.8970   -4.6050    2.8720 hn        1 MOL      0.230182
     92 H37         3.1090   -1.7780    2.3000 h1        1 MOL      0.147528
     93 H38         4.9410   -3.6310    3.8800 hc        1 MOL     -0.024168
     94 H39         6.4560   -2.0320    3.0050 hc        1 MOL      0.042451
     95 H40         6.0360   -1.6940    4.7240 hc        1 MOL      0.042451
     96 H41         4.1920   -2.1820    5.6670 hc        1 MOL      0.077860
     97 H42         2.7750   -1.7560    4.5790 hc        1 MOL      0.077860
     98 H43         3.0950   -3.3920    5.0740 hc        1 MOL      0.077860
     99 H44         4.5030    0.2330    3.9340 hc        1 MOL      0.028462
    100 H45         6.1980    0.3620    3.4510 hc        1 MOL      0.028462
    101 H46         4.9360   -0.0150    2.3090 hc        1 MOL      0.028462
    102 N10         4.0760   -2.2430   -0.1320 n         1 MOL      0.013851
    103 C32         4.6390   -2.3340   -1.4890 c3        1 MOL      0.009058
    104 C33         5.6180   -1.1780   -1.8360 c         1 MOL      0.508136
    105 O16         6.4030   -1.3240   -2.7990 o         1 MOL     -0.558546
    106 C34         3.5740   -2.4650   -2.5790 c3        1 MOL     -0.303673
    107 C35         2.3740   -3.2890   -2.1060 c         1 MOL      0.815004
    108 O17         2.4840   -4.5080   -1.8110 o         1 MOL     -0.725331
    109 O18         1.2930   -2.6950   -2.0330 o         1 MOL     -0.725331
    110 H47         3.2760   -1.6240   -0.0500 hn        1 MOL      0.084254
    111 H48         5.2360   -3.2430   -1.5490 h1        1 MOL      0.110498
    112 H49         4.0290   -2.9300   -3.4660 hc        1 MOL      0.075037
    113 H50         3.2450   -1.4910   -2.9400 hc        1 MOL      0.075037
    114 N11         5.8020   -0.1740   -0.9810 n         1 MOL     -0.446232
    115 C36         6.8590    0.8310   -1.2340 c3        1 MOL      0.308872
    116 C37         6.5560    2.2350   -0.7230 c         1 MOL      0.329586
    117 O19         6.1120    2.3160    0.4210 o         1 MOL     -0.529471
    118 C38         8.1290    0.2960   -0.5270 c3        1 MOL     -0.438982
    119 C39         9.2880    1.2290   -0.3810 ca        1 MOL      0.185144
    120 C40         9.6570    1.7020    0.9330 ca        1 MOL     -0.210751
    121 C41         9.9810    1.6920   -1.5210 ca        1 MOL     -0.210751
    122 C42        10.7580    2.5840    1.0850 ca        1 MOL     -0.079368
    123 C43        11.0010    2.6510   -1.3640 ca        1 MOL     -0.079368
    124 C44        11.3570    3.0880   -0.1110 ca        1 MOL     -0.160214
    125 H51         5.1270   -0.0750   -0.2290 hn        1 MOL      0.257173
    126 H52         7.0120    0.9090   -2.3170 h1        1 MOL     -0.003963
    127 H53         8.4890   -0.5710   -1.0760 hc        1 MOL      0.164685
    128 H54         7.9270    0.0220    0.5080 hc        1 MOL      0.164685
    129 H55         9.1590    1.4020    1.8460 ha        1 MOL      0.142378
    130 H56         9.7040    1.4650   -2.5360 ha        1 MOL      0.142378
    131 H57        11.1720    2.8470    2.0530 ha        1 MOL      0.104979
    132 H58        11.4160    3.0430   -2.2840 ha        1 MOL      0.104979
    133 H59        12.1350    3.8410   -0.0630 ha        1 MOL      0.096646
    134 N12         6.7880    3.3940   -1.3920 n         1 MOL      0.054098
    135 C45         6.5820    4.7510   -0.7560 c3        1 MOL     -0.120808
    136 C46         5.2280    5.1170   -0.2590 c         1 MOL      0.618027
    137 O20         5.0950    6.1890    0.3210 o         1 MOL     -0.581803
    138 C47         7.0380    5.7420   -1.8120 c3        1 MOL     -0.305094
    139 C48         6.7860    4.9390   -3.1470 c3        1 MOL      0.039085
    140 C49         7.0920    3.5150   -2.8340 c3        1 MOL     -0.126903
    141 H60         7.3220    4.8310    0.0400 h1        1 MOL      0.106521
    142 H61         6.3960    6.6200   -1.8670 hc        1 MOL      0.129153
    143 H62         8.1030    5.8780   -1.6760 hc        1 MOL      0.129153
    144 H63         5.8170    5.0760   -3.6210 hc        1 MOL      0.024505
    145 H64         7.5540    5.3570   -3.8050 hc        1 MOL      0.024505
    146 H65         6.2940    2.9850   -3.3690 h1        1 MOL      0.060248
    147 H66         8.1030    3.2510   -3.1450 h1        1 MOL      0.060248
    148 N13         4.1670    4.3160   -0.3750 n         1 MOL     -0.316770
    149 C50         2.7600    4.5030   -0.0010 c3        1 MOL     -0.148005
    150 C51         2.6270    5.1530    1.3810 c         1 MOL      0.546437
    151 O21         1.6620    5.8530    1.6080 o         1 MOL     -0.536312
    152 C52         1.9800    3.1540   -0.1350 c3        1 MOL     -0.032893
    153 C53         2.4260    2.0650    0.9040 c3        1 MOL     -0.012817
    154 C54         1.6710    0.8850    0.5310 c         1 MOL      0.705312
    155 O22         2.2060    0.0660   -0.2920 o         1 MOL     -0.744608
    156 O23         0.5600    0.5810    1.0060 o         1 MOL     -0.744608
    157 H67         4.3350    3.4040   -0.7900 hn        1 MOL      0.206801
    158 H68         2.2780    5.1330   -0.7470 h1        1 MOL      0.091608
    159 H69         2.0820    2.8870   -1.1810 hc        1 MOL      0.065714
    160 H70         0.9310    3.4060    0.0200 hc        1 MOL      0.065714
    161 H71         2.2820    2.3910    1.9310 hc        1 MOL     -0.009708
    162 H72         3.4980    1.8760    0.8260 hc        1 MOL     -0.009708
    163 N14         3.5530    4.8080    2.3190 n         1 MOL     -0.139695
    164 C55         3.4060    5.2680    3.7380 c3        1 MOL     -0.278315
    165 H73         3.2960    6.3520    3.7570 h1        1 MOL      0.109257
    166 H74         2.5250    4.8060    4.1810 h1        1 MOL      0.109257
    167 H75         4.2920    4.9840    4.3060 h1        1 MOL      0.109257
    168 H76         4.4340    4.4760    1.9650 hn        1 MOL      0.182611
    169 Ca1        -0.2150   -1.2330   -0.5890 Ca        1 MOL      1.756381
    170 O24         0.2130    0.3530   -2.5330 oh        1 MOL     -0.924112
    171 H77        -0.4030    1.0680   -2.7140 ho        1 MOL      0.434203
    172 H78         0.8560    0.4050   -3.2390 ho        1 MOL      0.434203
    173 O25        -2.0440   -1.5430    1.3270 oh        1 MOL     -0.924112
    174 H79        -1.8470   -0.8310    1.9290 ho        1 MOL      0.434203
    175 H80        -3.0010   -1.5180    1.2240 ho        1 MOL      0.434203
@<TRIPOS>BOND
     1    1    2 1   
     2    1    4 1   
     3    1    5 1   
     4    1    6 1   
     5    2    3 2   
     6    2    7 1   
     7    7    8 1   
     8    7   15 1   
     9    8    9 1   
    10    8   11 1   
    11    8   16 1   
    12    9   10 2   
    13    9   19 1   
    14   11   12 1   
    15   11   17 1   
    16   11   18 1   
    17   12   13 1   
    18   12   14 1   
    19   19   20 1   
    20   19   24 1   
    21   20   21 1   
    22   20   23 1   
    23   20   25 1   
    24   21   22 2   
    25   21   29 1   
    26   23   26 1   
    27   23   27 1   
    28   23   28 1   
    29   29   30 1   
    30   29   37 1   
    31   30   31 1   
    32   30   33 1   
    33   30   38 1   
    34   31   32 2   
    35   31   41 1   
    36   33   34 1   
    37   33   39 1   
    38   33   40 1   
    39   34   35 1   
    40   34   36 1   
    41   41   42 1   
    42   41   45 1   
    43   42   43 1   
    44   42   46 1   
    45   42   47 1   
    46   43   44 2   
    47   43   48 1   
    48   48   49 1   
    49   48   56 1   
    50   49   50 1   
    51   49   52 1   
    52   49   57 1   
    53   50   51 2   
    54   50   62 1   
    55   52   53 1   
    56   52   58 1   
    57   52   59 1   
    58   53   54 1   
    59   53   55 2   
    60   54   60 1   
    61   54   61 1   
    62   62   63 1   
    63   62   66 1   
    64   63   64 1   
    65   63   67 1   
    66   63   68 1   
    67   64   65 2   
    68   64   69 1   
    69   69   70 1   
    70   69   76 1   
    71   70   71 1   
    72   70   73 1   
    73   70   77 1   
    74   71   72 2   
    75   71   83 1   
    76   73   74 1   
    77   73   75 1   
    78   73   78 1   
    79   74   80 1   
    80   74   81 1   
    81   74   82 1   
    82   75   79 1   
    83   83   84 1   
    84   83   91 1   
    85   84   85 1   
    86   84   87 1   
    87   84   92 1   
    88   85   86 2   
    89   85  102 1   
    90   87   88 1   
    91   87   89 1   
    92   87   93 1   
    93   88   90 1   
    94   88   94 1   
    95   88   95 1   
    96   89   96 1   
    97   89   97 1   
    98   89   98 1   
    99   90   99 1   
   100   90  100 1   
   101   90  101 1   
   102  102  103 1   
   103  102  110 1   
   104  103  104 1   
   105  103  106 1   
   106  103  111 1   
   107  104  105 2   
   108  104  114 1   
   109  106  107 1   
   110  106  112 1   
   111  106  113 1   
   112  107  108 1   
   113  107  109 1   
   114  114  115 1   
   115  114  125 1   
   116  115  116 1   
   117  115  118 1   
   118  115  126 1   
   119  116  117 2   
   120  116  134 1   
   121  118  119 1   
   122  118  127 1   
   123  118  128 1   
   124  119  120 ar  
   125  119  121 ar  
   126  120  122 ar  
   127  120  129 1   
   128  121  123 ar  
   129  121  130 1   
   130  122  124 ar  
   131  122  131 1   
   132  123  124 ar  
   133  123  132 1   
   134  124  133 1   
   135  134  135 1   
   136  134  140 1   
   137  135  136 1   
   138  135  138 1   
   139  135  141 1   
   140  136  137 2   
   141  136  148 1   
   142  138  139 1   
   143  138  142 1   
   144  138  143 1   
   145  139  140 1   
   146  139  144 1   
   147  139  145 1   
   148  140  146 1   
   149  140  147 1   
   150  148  149 1   
   151  148  157 1   
   152  149  150 1   
   153  149  152 1   
   154  149  158 1   
   155  150  151 2   
   156  150  163 1   
   157  152  153 1   
   158  152  159 1   
   159  152  160 1   
   160  153  154 1   
   161  153  161 1   
   162  153  162 1   
   163  154  155 1   
   164  154  156 1   
   165  163  164 1   
   166  163  168 1   
   167  164  165 1   
   168  164  166 1   
   169  164  167 1   
   170  170  171 1   
   171  170  172 1   
   172  173  174 1   
   173  173  175 1   
@<TRIPOS>SUBSTRUCTURE
     1 MOL         1 TEMP              0 ****  ****    0 ROOT
