@<TRIPOS>MOLECULE
MOL
  184   179     1     0     0
SMALL
resp


@<TRIPOS>ATOM
      1 C1          1.7360   -2.7150    3.7530 c3        1 MOL     -0.307563
      2 C2          2.7590   -1.6980    3.3200 c         1 MOL      0.701868
      3 O1          2.5040   -0.8590    2.4490 o         1 MOL     -0.570637
      4 H1          2.0480   -3.7070    3.4250 hc        1 MOL      0.076964
      5 H2          1.6480   -2.7040    4.8400 hc        1 MOL      0.076964
      6 H3          0.7710   -2.4730    3.3080 hc        1 MOL      0.076964
      7 N1          3.9710   -1.7140    3.9650 n         1 MOL     -0.553746
      8 C3          5.1410   -1.1270    3.3000 c3        1 MOL      0.110966
      9 C4          5.6690   -1.9650    2.1840 c         1 MOL      0.651839
     10 O2          6.4670   -1.4100    1.3600 o         1 MOL     -0.583054
     11 C5          6.2100   -0.8940    4.3750 c3        1 MOL     -0.311407
     12 C6          6.9100   -2.1840    4.9030 c         1 MOL      0.792540
     13 O3          6.3670   -3.3100    4.9310 o         1 MOL     -0.732238
     14 O4          8.0740   -2.0680    5.2600 o         1 MOL     -0.732238
     15 H4          4.1780   -2.3500    4.7230 hn        1 MOL      0.255946
     16 H5          4.8240   -0.2280    2.7720 h1        1 MOL      0.065311
     17 H6          5.7700   -0.3800    5.2260 hc        1 MOL      0.056642
     18 H7          6.9860   -0.2920    3.8980 hc        1 MOL      0.056642
     19 N2          5.2220   -3.2250    1.9890 n         1 MOL     -0.428010
     20 C7          5.2840   -3.9620    0.7160 c3        1 MOL      0.213647
     21 C8          4.6140   -3.1690   -0.4160 c         1 MOL      0.598065
     22 O5          3.3920   -3.2830   -0.5750 o         1 MOL     -0.736036
     23 C9          6.7790   -4.4730    0.5390 c3        1 MOL     -0.392016
     24 H8          4.4590   -3.5430    2.5800 hn        1 MOL      0.253225
     25 H9          4.6140   -4.8120    0.7910 h1        1 MOL      0.032740
     26 H10         7.4020   -3.5780    0.5080 hc        1 MOL      0.104703
     27 H11         7.1050   -5.0120    1.4250 hc        1 MOL      0.104703
     28 H12         6.9330   -5.0570   -0.3710 hc        1 MOL      0.104703
     29 N3          5.4160   -2.4710   -1.2030 n         1 MOL     -0.464074
     30 C10         4.9690   -1.6160   -2.2780 c3        1 MOL      0.334451
     31 C11         5.6550   -0.2230   -2.2730 c         1 MOL      0.349060
     32 O6          5.9300    0.3200   -3.3670 o         1 MOL     -0.486400
     33 C12         4.8890   -2.3840   -3.6160 c3        1 MOL     -0.463298
     34 C13         3.8650   -3.4530   -3.4500 c         1 MOL      0.825808
     35 O7          2.6370   -3.0770   -3.4460 o         1 MOL     -0.719310
     36 O8          4.1980   -4.6700   -3.2620 o         1 MOL     -0.719310
     37 H13         6.4190   -2.5660   -1.1260 hn        1 MOL      0.268482
     38 H14         3.9090   -1.3540   -2.1830 h1        1 MOL      0.039496
     39 H15         5.8450   -2.7840   -3.9760 hc        1 MOL      0.097980
     40 H16         4.4990   -1.6760   -4.3520 hc        1 MOL      0.097980
     41 N4          6.0080    0.2180   -1.0680 n         1 MOL     -0.191909
     42 C14         6.5520    1.5880   -0.7980 c3        1 MOL     -0.122538
     43 C15         5.6520    2.6010   -1.5320 c         1 MOL      0.476501
     44 O9          6.1200    3.5730   -2.1430 o         1 MOL     -0.539255
     45 H17         5.8030   -0.4510   -0.3310 hn        1 MOL      0.149970
     46 H18         7.5510    1.6910   -1.2240 h1        1 MOL      0.096686
     47 H19         6.6500    1.7560    0.2780 h1        1 MOL      0.096686
     48 N5          4.3510    2.3560   -1.7330 n         1 MOL     -0.176551
     49 C16         3.4100    3.2560   -2.4180 c3        1 MOL     -0.053164
     50 C17         3.2250    4.5650   -1.6610 c         1 MOL      0.469852
     51 O10         3.6510    4.7070   -0.4730 o         1 MOL     -0.525895
     52 C18         2.1440    2.4630   -2.6450 c3        1 MOL     -0.141198
     53 C19         2.3270    1.3300   -3.6510 c         1 MOL      0.630250
     54 N6          1.7240    0.1750   -3.5730 n         1 MOL     -0.797503
     55 O11         2.9820    1.6090   -4.6470 o         1 MOL     -0.584737
     56 H20         4.0000    1.5130   -1.2990 hn        1 MOL      0.155665
     57 H21         3.7640    3.4910   -3.4270 h1        1 MOL      0.079448
     58 H22         1.3690    3.1440   -2.9970 hc        1 MOL      0.061703
     59 H23         1.7370    1.9930   -1.7470 hc        1 MOL      0.061703
     60 H24         1.2390   -0.0680   -2.7120 hn        1 MOL      0.378154
     61 H25         1.9160   -0.4820   -4.3030 hn        1 MOL      0.378154
     62 N7          2.6940    5.5450   -2.3600 n         1 MOL     -0.322672
     63 C20         2.2750    6.7850   -1.7090 c3        1 MOL     -0.130149
     64 C21         0.7940    6.9230   -1.2440 c         1 MOL      0.566519
     65 O12        -0.1330    6.6340   -1.9230 o         1 MOL     -0.491789
     66 H26         2.3740    5.4090   -3.3010 hn        1 MOL      0.281341
     67 H27         2.5690    7.5400   -2.4300 h1        1 MOL      0.090323
     68 H28         2.9530    7.0280   -0.8890 h1        1 MOL      0.090323
     69 N8          0.6200    7.6290   -0.1050 n         1 MOL     -0.437501
     70 C22        -0.6710    8.0590    0.5240 c3        1 MOL     -0.272967
     71 C23        -1.5400    6.9310    0.9770 c         1 MOL      0.472628
     72 O13        -2.7390    7.1360    1.2200 o         1 MOL     -0.565582
     73 C24        -0.3970    9.0700    1.6390 c3        1 MOL      0.397343
     74 C25         0.2720    8.4260    2.8770 c3        1 MOL     -0.168935
     75 O14         0.3340   10.1760    1.3320 oh        1 MOL     -0.588759
     76 H29         1.4400    7.8240    0.4560 hn        1 MOL      0.246448
     77 H30        -1.2210    8.6680   -0.2010 h1        1 MOL      0.169704
     78 H31        -1.3750    9.4120    1.9720 h1        1 MOL      0.049867
     79 H32         1.1900    9.8130    1.1040 ho        1 MOL      0.357427
     80 H33         0.4940    9.1750    3.6320 hc        1 MOL      0.035450
     81 H34        -0.4710    7.7780    3.3400 hc        1 MOL      0.035450
     82 H35         1.1300    7.7800    2.7270 hc        1 MOL      0.035450
     83 N9         -0.9700    5.7610    1.1230 n         1 MOL     -0.024055
     84 C26        -1.6630    4.5040    1.3070 c3        1 MOL     -0.158671
     85 C27        -1.0950    3.3900    0.3810 c         1 MOL      0.326823
     86 O15         0.0980    3.3260    0.0330 o         1 MOL     -0.405105
     87 C28        -1.6430    4.0170    2.7340 c3        1 MOL      0.122782
     88 C29        -0.2380    3.8600    3.3120 c3        1 MOL      0.200312
     89 C30        -2.3580    5.0100    3.6430 c3        1 MOL     -0.520609
     90 C31        -0.1590    2.9680    4.5710 c3        1 MOL     -0.277889
     91 H36         0.0290    5.6570    0.9890 hn        1 MOL      0.137655
     92 H37        -2.7310    4.5240    1.0730 h1        1 MOL      0.111209
     93 H38        -2.1570    3.0610    2.7270 hc        1 MOL      0.021701
     94 H39         0.1990    4.8230    3.6060 hc        1 MOL     -0.004513
     95 H40         0.4180    3.4380    2.5460 hc        1 MOL     -0.004513
     96 H41        -3.3750    5.1800    3.2870 hc        1 MOL      0.124974
     97 H42        -2.2760    4.6370    4.6600 hc        1 MOL      0.124974
     98 H43        -1.9830    6.0330    3.6760 hc        1 MOL      0.124974
     99 H44         0.9080    2.9140    4.8290 hc        1 MOL      0.061508
    100 H45        -0.7550    3.3310    5.4080 hc        1 MOL      0.061508
    101 H46        -0.4810    1.9760    4.2570 hc        1 MOL      0.061508
    102 N10        -1.9060    2.4340   -0.0350 n         1 MOL     -0.269875
    103 C32        -1.4720    1.3170   -0.8580 c3        1 MOL     -0.036176
    104 C33        -2.5650    0.6350   -1.7400 c         1 MOL      0.458771
    105 O16        -2.2350    0.2110   -2.8770 o         1 MOL     -0.510890
    106 C34        -0.9120    0.2900    0.1500 c3        1 MOL     -0.317513
    107 C35        -0.2900   -0.9670   -0.3970 c         1 MOL      0.604014
    108 O17         0.7940   -0.9450   -1.0720 o         1 MOL     -0.634043
    109 O18        -0.8610   -2.0730   -0.3320 o         1 MOL     -0.634043
    110 H47        -2.9010    2.4450    0.1680 hn        1 MOL      0.218887
    111 H48        -0.6340    1.6580   -1.4570 h1        1 MOL      0.110683
    112 H49        -1.6540   -0.0450    0.8740 hc        1 MOL      0.118783
    113 H50        -0.0330    0.6940    0.6430 hc        1 MOL      0.118783
    114 N11        -3.7520    0.3750   -1.1780 n         1 MOL     -0.244257
    115 C36        -4.8530   -0.2330   -1.8970 c3        1 MOL      0.194138
    116 C37        -5.8040   -1.0830   -1.0730 c         1 MOL      0.177970
    117 O19        -5.9570   -0.7810    0.1270 o         1 MOL     -0.383812
    118 C38        -5.6480    0.9360   -2.4780 c3        1 MOL     -0.203853
    119 C39        -5.9850    2.0390   -1.4380 ca        1 MOL      0.027584
    120 C40        -6.9870    1.8960   -0.5050 ca        1 MOL     -0.136995
    121 C41        -5.2490    3.2940   -1.3970 ca        1 MOL     -0.136995
    122 C42        -7.3340    2.8580    0.4590 ca        1 MOL     -0.106696
    123 C43        -5.5910    4.2400   -0.4620 ca        1 MOL     -0.106696
    124 C44        -6.4950    4.0010    0.5360 ca        1 MOL     -0.119979
    125 H51        -3.9770    0.6140   -0.2180 hn        1 MOL      0.281978
    126 H52        -4.5820   -0.7960   -2.7920 h1        1 MOL     -0.006267
    127 H53        -6.5160    0.5580   -3.0240 hc        1 MOL      0.082437
    128 H54        -5.0480    1.3710   -3.2710 hc        1 MOL      0.082437
    129 H55        -7.5040    0.9460   -0.4520 ha        1 MOL      0.103695
    130 H56        -4.3690    3.3800   -2.0190 ha        1 MOL      0.103695
    131 H57        -8.1160    2.6420    1.1590 ha        1 MOL      0.118133
    132 H58        -4.9710    5.1310   -0.3920 ha        1 MOL      0.118133
    133 H59        -6.7780    4.7410    1.2730 ha        1 MOL      0.109368
    134 N12        -6.4920   -2.1400   -1.6640 n         1 MOL      0.056734
    135 C45        -7.4210   -3.0200   -0.8860 c3        1 MOL     -0.158572
    136 C46        -7.0100   -3.4990    0.5020 c         1 MOL      0.436448
    137 O20        -7.8770   -3.4820    1.3670 o         1 MOL     -0.503493
    138 C47        -7.8680   -4.0790   -1.9060 c3        1 MOL      0.184169
    139 C48        -7.5970   -3.3820   -3.2460 c3        1 MOL     -0.266420
    140 C49        -6.3670   -2.4940   -3.0110 c3        1 MOL     -0.071716
    141 H60        -8.3350   -2.4350   -0.7840 h1        1 MOL      0.100275
    142 H61        -7.3230   -5.0220   -1.8230 hc        1 MOL     -0.002269
    143 H62        -8.8980   -4.3690   -1.7250 hc        1 MOL     -0.002269
    144 H63        -7.3920   -4.1220   -4.0280 hc        1 MOL      0.073983
    145 H64        -8.4870   -2.7950   -3.4350 hc        1 MOL      0.073983
    146 H65        -5.4710   -3.0730   -3.2250 h1        1 MOL      0.096602
    147 H66        -6.5310   -1.6410   -3.6670 h1        1 MOL      0.096602
    148 N13        -5.7220   -3.6600    0.7420 n         1 MOL     -0.267459
    149 C50        -5.1220   -4.1170    1.9580 c3        1 MOL     -0.192780
    150 C51        -5.1920   -3.1320    3.1160 c         1 MOL      0.518232
    151 O21        -5.5360   -3.4970    4.2490 o         1 MOL     -0.540263
    152 C52        -3.7070   -4.5990    1.6130 c3        1 MOL      0.012740
    153 C53        -3.0600   -5.3620    2.8010 c3        1 MOL     -0.111854
    154 C54        -1.7620   -6.0850    2.3420 c         1 MOL      0.735274
    155 O22        -1.3950   -6.1070    1.1470 o         1 MOL     -0.718075
    156 O23        -1.1980   -6.8130    3.2200 o         1 MOL     -0.718075
    157 H67        -5.0660   -3.3640    0.0260 hn        1 MOL      0.227629
    158 H68        -5.7770   -4.9400    2.2520 h1        1 MOL      0.145352
    159 H69        -3.0840   -3.8100    1.2090 hc        1 MOL      0.010992
    160 H70        -3.7440   -5.3160    0.7850 hc        1 MOL      0.010992
    161 H71        -3.8070   -6.0740    3.1500 hc        1 MOL      0.030877
    162 H72        -2.8210   -4.6690    3.6030 hc        1 MOL      0.030877
    163 N14        -5.0890   -1.8260    2.7530 n         1 MOL     -0.145076
    164 C55        -5.3420   -0.7350    3.7100 c3        1 MOL     -0.391464
    165 H73        -5.2040    0.2250    3.2110 h1        1 MOL      0.141988
    166 H74        -6.3640   -0.8060    4.0820 h1        1 MOL      0.141988
    167 H75        -4.6440   -0.8130    4.5440 h1        1 MOL      0.141988
    168 H76        -4.9020   -1.6960    1.7750 hn        1 MOL      0.141512
    169 Ca1         0.8510   -3.5270   -1.5720 Ca        1 MOL      1.738378
    170 O24         2.3030   -5.7420   -1.6160 oh        1 MOL     -0.848310
    171 H77         3.0680   -5.4810   -2.1310 ho        1 MOL      0.401746
    172 H78         2.6560   -6.3350   -0.9440 ho        1 MOL      0.401746
    173 O25        -0.7020   -2.2560   -3.2490 oh        1 MOL     -0.848310
    174 H79        -1.0450   -1.3640   -3.1940 ho        1 MOL      0.401746
    175 H80        -1.1820   -2.6570   -3.9720 ho        1 MOL      0.401746
    176 O26         0.2660   -4.9430   -4.0490 oh        1 MOL     -0.848310
    177 H81         1.0380   -5.3240   -4.4610 ho        1 MOL      0.401746
    178 H82        -0.4740   -5.3620   -4.4830 ho        1 MOL      0.401746
    179 O27        -1.5240   -5.1050   -1.4030 oh        1 MOL     -0.848310
    180 H83        -1.3410   -5.8880   -1.9300 ho        1 MOL      0.401746
    181 H84        -1.4320   -5.4090   -0.5030 ho        1 MOL      0.401746
    182 O28         0.7880   -4.7400    0.7560 oh        1 MOL     -0.848310
    183 H85         1.3580   -5.1020    1.4380 ho        1 MOL      0.401746
    184 H86         0.0310   -5.3120    0.7490 ho        1 MOL      0.401746
@<TRIPOS>BOND
     1    1    2 1   
     2    1    4 1   
     3    1    5 1   
     4    1    6 1   
     5    2    3 2   
     6    2    7 1   
     7    7    8 1   
     8    7   15 1   
     9    8    9 1   
    10    8   11 1   
    11    8   16 1   
    12    9   10 2   
    13    9   19 1   
    14   11   12 1   
    15   11   17 1   
    16   11   18 1   
    17   12   13 1   
    18   12   14 1   
    19   19   20 1   
    20   19   24 1   
    21   20   21 1   
    22   20   23 1   
    23   20   25 1   
    24   21   22 2   
    25   21   29 1   
    26   23   26 1   
    27   23   27 1   
    28   23   28 1   
    29   29   30 1   
    30   29   37 1   
    31   30   31 1   
    32   30   33 1   
    33   30   38 1   
    34   31   32 2   
    35   31   41 1   
    36   33   34 1   
    37   33   39 1   
    38   33   40 1   
    39   34   35 1   
    40   34   36 1   
    41   41   42 1   
    42   41   45 1   
    43   42   43 1   
    44   42   46 1   
    45   42   47 1   
    46   43   44 2   
    47   43   48 1   
    48   48   49 1   
    49   48   56 1   
    50   49   50 1   
    51   49   52 1   
    52   49   57 1   
    53   50   51 2   
    54   50   62 1   
    55   52   53 1   
    56   52   58 1   
    57   52   59 1   
    58   53   54 1   
    59   53   55 2   
    60   54   60 1   
    61   54   61 1   
    62   62   63 1   
    63   62   66 1   
    64   63   64 1   
    65   63   67 1   
    66   63   68 1   
    67   64   65 2   
    68   64   69 1   
    69   69   70 1   
    70   69   76 1   
    71   70   71 1   
    72   70   73 1   
    73   70   77 1   
    74   71   72 2   
    75   71   83 1   
    76   73   74 1   
    77   73   75 1   
    78   73   78 1   
    79   74   80 1   
    80   74   81 1   
    81   74   82 1   
    82   75   79 1   
    83   83   84 1   
    84   83   91 1   
    85   84   85 1   
    86   84   87 1   
    87   84   92 1   
    88   85   86 2   
    89   85  102 1   
    90   87   88 1   
    91   87   89 1   
    92   87   93 1   
    93   88   90 1   
    94   88   94 1   
    95   88   95 1   
    96   89   96 1   
    97   89   97 1   
    98   89   98 1   
    99   90   99 1   
   100   90  100 1   
   101   90  101 1   
   102  102  103 1   
   103  102  110 1   
   104  103  104 1   
   105  103  106 1   
   106  103  111 1   
   107  104  105 2   
   108  104  114 1   
   109  106  107 1   
   110  106  112 1   
   111  106  113 1   
   112  107  108 1   
   113  107  109 1   
   114  114  115 1   
   115  114  125 1   
   116  115  116 1   
   117  115  118 1   
   118  115  126 1   
   119  116  117 2   
   120  116  134 1   
   121  118  119 1   
   122  118  127 1   
   123  118  128 1   
   124  119  120 ar  
   125  119  121 ar  
   126  120  122 ar  
   127  120  129 1   
   128  121  123 ar  
   129  121  130 1   
   130  122  124 ar  
   131  122  131 1   
   132  123  124 ar  
   133  123  132 1   
   134  124  133 1   
   135  134  135 1   
   136  134  140 1   
   137  135  136 1   
   138  135  138 1   
   139  135  141 1   
   140  136  137 2   
   141  136  148 1   
   142  138  139 1   
   143  138  142 1   
   144  138  143 1   
   145  139  140 1   
   146  139  144 1   
   147  139  145 1   
   148  140  146 1   
   149  140  147 1   
   150  148  149 1   
   151  148  157 1   
   152  149  150 1   
   153  149  152 1   
   154  149  158 1   
   155  150  151 2   
   156  150  163 1   
   157  152  153 1   
   158  152  159 1   
   159  152  160 1   
   160  153  154 1   
   161  153  161 1   
   162  153  162 1   
   163  154  155 1   
   164  154  156 1   
   165  163  164 1   
   166  163  168 1   
   167  164  165 1   
   168  164  166 1   
   169  164  167 1   
   170  170  171 1   
   171  170  172 1   
   172  173  174 1   
   173  173  175 1   
   174  176  177 1   
   175  176  178 1   
   176  179  180 1   
   177  179  181 1   
   178  182  183 1   
   179  182  184 1   
@<TRIPOS>SUBSTRUCTURE
     1 MOL         1 TEMP              0 ****  ****    0 ROOT
