@<TRIPOS>MOLECULE
MOL
  178   175     1     0     0
SMALL
resp


@<TRIPOS>ATOM
      1 C1          1.2040    6.8770   -1.7650 c3        1 MOL     -0.385969
      2 C2          2.6020    6.9170   -1.2150 c         1 MOL      0.706651
      3 O1          2.8560    7.4940   -0.1400 o         1 MOL     -0.579035
      4 H1          0.4920    7.0410   -0.9560 hc        1 MOL      0.097099
      5 H2          1.0850    7.6580   -2.5160 hc        1 MOL      0.097099
      6 H3          1.0190    5.9040   -2.2190 hc        1 MOL      0.097099
      7 N1          3.5630    6.2890   -1.9440 n         1 MOL     -0.642950
      8 C3          4.9360    6.3450   -1.6050 c3        1 MOL      0.376606
      9 C4          5.2780    5.1050   -0.6850 c         1 MOL      0.560802
     10 O2          5.4470    3.9730   -1.1020 o         1 MOL     -0.523946
     11 C5          5.7950    6.2880   -2.8660 c3        1 MOL     -0.369226
     12 C6          7.3070    6.4720   -2.6730 c         1 MOL      0.738049
     13 O3          7.6560    7.3090   -1.8640 o         1 MOL     -0.729479
     14 O4          8.2030    5.7380   -3.2050 o         1 MOL     -0.729479
     15 H4          3.2210    5.7980   -2.7600 hn        1 MOL      0.321341
     16 H5          5.2300    7.3140   -1.1970 h1        1 MOL      0.009409
     17 H6          5.3640    7.0880   -3.4640 hc        1 MOL      0.035876
     18 H7          5.6580    5.4170   -3.4900 hc        1 MOL      0.035876
     19 N2          5.2180    5.2590    0.7080 n         1 MOL     -0.683363
     20 C7          5.1160    4.2480    1.7570 c3        1 MOL      0.723813
     21 C8          3.6350    3.8330    2.1550 c         1 MOL      0.240609
     22 O5          2.7230    4.6670    1.9620 o         1 MOL     -0.512831
     23 C9          5.9680    4.6520    2.9910 c3        1 MOL     -0.437586
     24 H8          5.0110    6.2210    0.9280 hn        1 MOL      0.268647
     25 H9          5.6740    3.3680    1.4290 h1        1 MOL     -0.052849
     26 H10         5.8530    3.9560    3.8160 hc        1 MOL      0.096464
     27 H11         6.9990    4.8710    2.7130 hc        1 MOL      0.096464
     28 H12         5.5830    5.6010    3.3910 hc        1 MOL      0.096464
     29 N3          3.4230    2.6870    2.7780 n         1 MOL     -0.354522
     30 C10         4.4610    1.6170    2.9390 c3        1 MOL     -0.016819
     31 C11         4.5630    0.6150    1.7640 c         1 MOL      0.520683
     32 O6          3.7240    0.5920    0.8570 o         1 MOL     -0.544585
     33 C12         4.1970    0.8710    4.2940 c3        1 MOL     -0.353804
     34 C13         3.0430   -0.1080    4.3200 c         1 MOL      0.766891
     35 O7          3.0360   -0.9220    5.2670 o         1 MOL     -0.706528
     36 O8          2.2630   -0.3000    3.3690 o         1 MOL     -0.706528
     37 H13         2.5740    2.6240    3.3110 hn        1 MOL      0.341279
     38 H14         5.4330    2.0900    3.0450 h1        1 MOL      0.053898
     39 H15         4.0020    1.6400    5.0350 hc        1 MOL      0.092785
     40 H16         5.1180    0.3580    4.5910 hc        1 MOL      0.092785
     41 N4          5.4470   -0.3270    1.9750 n         1 MOL     -0.489749
     42 C14         5.7370   -1.5560    1.2580 c3        1 MOL      0.204410
     43 C15         6.9920   -1.5950    0.5290 c         1 MOL      0.574580
     44 O9          7.6180   -0.5740    0.3830 o         1 MOL     -0.520169
     45 H17         5.9400   -0.2460    2.8560 hn        1 MOL      0.289784
     46 H18         5.0200   -1.8080    0.4850 h1        1 MOL      0.035178
     47 H19         5.7970   -2.3370    2.0200 h1        1 MOL      0.035178
     48 N5          7.4520   -2.7100   -0.0810 n         1 MOL     -0.754565
     49 C16         6.7240   -4.0020   -0.1790 c3        1 MOL      0.503371
     50 C17         5.9090   -4.1370   -1.4920 c         1 MOL      0.386284
     51 O10         5.7980   -5.2080   -1.9720 o         1 MOL     -0.462938
     52 C18         7.7520   -5.1920   -0.0390 c3        1 MOL     -0.222668
     53 C19         7.2020   -6.4890    0.5440 c         1 MOL      0.589695
     54 N6          7.7680   -7.6290    0.2680 n         1 MOL     -0.739290
     55 O11         6.1920   -6.5440    1.1850 o         1 MOL     -0.518771
     56 H20         8.2640   -2.6410   -0.6810 hn        1 MOL      0.340195
     57 H21         6.0810   -4.0900    0.6910 h1        1 MOL     -0.078147
     58 H22         8.6010   -4.9170    0.5970 hc        1 MOL      0.053454
     59 H23         8.1870   -5.3840   -1.0180 hc        1 MOL      0.053454
     60 H24         8.7230   -7.5760   -0.0430 hn        1 MOL      0.350320
     61 H25         7.3690   -8.3950    0.7910 hn        1 MOL      0.350320
     62 N7          5.4080   -3.0420   -2.0780 n         1 MOL     -0.353424
     63 C20         4.7440   -2.9560   -3.4040 c3        1 MOL     -0.293466
     64 C21         3.4330   -3.6140   -3.4690 c         1 MOL      0.605793
     65 O12         3.0590   -4.1680   -4.5040 o         1 MOL     -0.536283
     66 H26         5.5710   -2.1670   -1.6010 hn        1 MOL      0.314945
     67 H27         5.4170   -3.4790   -4.0900 h1        1 MOL      0.156159
     68 H28         4.7500   -1.9300   -3.7640 h1        1 MOL      0.156159
     69 N8          2.7350   -3.5390   -2.2830 n         1 MOL     -0.359648
     70 C22         1.4100   -4.1320   -2.0210 c3        1 MOL     -0.093308
     71 C23         0.2790   -3.2390   -1.4960 c         1 MOL      0.678806
     72 O13         0.6080   -2.1770   -1.0010 o         1 MOL     -0.591556
     73 C24         1.6770   -5.2090   -1.0210 c3        1 MOL      0.492463
     74 C25         2.3440   -6.5350   -1.5560 c3        1 MOL     -0.398552
     75 O14         2.4660   -4.8230    0.0820 oh        1 MOL     -0.716821
     76 H29         3.2100   -3.2410   -1.4450 hn        1 MOL      0.207935
     77 H30         1.0850   -4.6590   -2.9230 h1        1 MOL      0.064929
     78 H31         0.6790   -5.4730   -0.6880 h1        1 MOL     -0.054740
     79 H32         2.5830   -5.5310    0.7250 ho        1 MOL      0.448920
     80 H33         2.2450   -7.3380   -0.8320 hc        1 MOL      0.101466
     81 H34         1.7620   -6.8610   -2.4200 hc        1 MOL      0.101466
     82 H35         3.3730   -6.3830   -1.8640 hc        1 MOL      0.101466
     83 N9         -1.0020   -3.7500   -1.7100 n         1 MOL     -0.390519
     84 C26        -2.2210   -2.9280   -1.3980 c3        1 MOL      0.005567
     85 C27        -2.7380   -3.2940    0.0240 c         1 MOL      0.393951
     86 O15        -3.1860   -4.4160    0.2350 o         1 MOL     -0.587546
     87 C28        -3.2840   -3.2400   -2.5070 c3        1 MOL      0.342114
     88 C29        -4.6960   -2.5590   -2.2740 c3        1 MOL      0.039235
     89 C30        -2.7760   -2.8560   -3.9180 c3        1 MOL     -0.350833
     90 C31        -5.7570   -2.8470   -3.3360 c3        1 MOL     -0.074363
     91 H36        -1.1900   -4.6140   -2.2050 hn        1 MOL      0.237746
     92 H37        -2.0270   -1.8540   -1.3810 h1        1 MOL      0.047047
     93 H38        -3.5460   -4.2980   -2.4700 hc        1 MOL     -0.051944
     94 H39        -4.5090   -1.4970   -2.3930 hc        1 MOL     -0.031025
     95 H40        -5.0930   -2.7810   -1.2800 hc        1 MOL     -0.031025
     96 H41        -3.3150   -3.4360   -4.6760 hc        1 MOL      0.063554
     97 H42        -2.7130   -1.7760   -4.0410 hc        1 MOL      0.063554
     98 H43        -1.7170   -3.1030   -3.8930 hc        1 MOL      0.063554
     99 H44        -6.6620   -2.3140   -3.0370 hc        1 MOL      0.008075
    100 H45        -5.5590   -2.4630   -4.3340 hc        1 MOL      0.008075
    101 H46        -5.9760   -3.9120   -3.4360 hc        1 MOL      0.008075
    102 N10        -2.8470   -2.3240    0.9160 n         1 MOL     -0.192333
    103 C32        -3.4020   -2.3970    2.3220 c3        1 MOL     -0.032364
    104 C33        -4.9080   -2.0960    2.4480 c         1 MOL      0.299234
    105 O16        -5.5360   -2.3710    3.4930 o         1 MOL     -0.528589
    106 C34        -2.6680   -1.5340    3.3850 c3        1 MOL     -0.105918
    107 C35        -1.2120   -1.1950    3.0020 c         1 MOL      0.782098
    108 O17        -0.4570   -2.0230    2.4550 o         1 MOL     -0.776270
    109 O18        -0.7870   -0.0320    3.0660 o         1 MOL     -0.776270
    110 H47        -2.5260   -1.4060    0.6240 hn        1 MOL      0.122041
    111 H48        -3.2970   -3.4430    2.6220 h1        1 MOL      0.130794
    112 H49        -2.5170   -2.2330    4.2120 hc        1 MOL      0.034521
    113 H50        -3.2280   -0.6440    3.6350 hc        1 MOL      0.034521
    114 N11        -5.3180   -1.4320    1.3850 n         1 MOL     -0.042454
    115 C36        -6.6940   -0.8770    1.1670 c3        1 MOL      0.188266
    116 C37        -6.6800    0.6250    0.7510 c         1 MOL      0.258745
    117 O19        -6.8200    0.9410   -0.4480 o         1 MOL     -0.413327
    118 C38        -7.4470   -1.6740    0.1280 c3        1 MOL     -0.186533
    119 C39        -8.9420   -1.4310    0.0950 ca        1 MOL      0.093952
    120 C40        -9.8110   -1.4960    1.2050 ca        1 MOL     -0.152689
    121 C41        -9.5290   -1.1970   -1.1510 ca        1 MOL     -0.152689
    122 C42       -11.1980   -1.2640    1.1120 ca        1 MOL     -0.142608
    123 C43       -10.9530   -1.1140   -1.2930 ca        1 MOL     -0.142608
    124 C44       -11.7960   -1.1050   -0.1840 ca        1 MOL     -0.098492
    125 H51        -4.6440   -1.1330    0.7030 hn        1 MOL      0.108792
    126 H52        -7.2760   -1.0760    2.0720 h1        1 MOL     -0.003447
    127 H53        -7.2780   -2.7430    0.2800 hc        1 MOL      0.077555
    128 H54        -7.0900   -1.4850   -0.8780 hc        1 MOL      0.077555
    129 H55        -9.4840   -1.8700    2.1640 ha        1 MOL      0.121943
    130 H56        -8.8940   -1.2300   -2.0280 ha        1 MOL      0.121943
    131 H57       -11.7740   -1.4000    2.0110 ha        1 MOL      0.107972
    132 H58       -11.4410   -0.9410   -2.2430 ha        1 MOL      0.107972
    133 H59       -12.8600   -1.0520   -0.3480 ha        1 MOL      0.095153
    134 N12        -6.3500    1.5540    1.6810 n         1 MOL     -0.121326
    135 C45        -6.3190    3.0380    1.4050 c3        1 MOL     -0.158967
    136 C46        -5.5190    3.5150    0.1260 c         1 MOL      0.250225
    137 O20        -5.8220    4.6690   -0.2920 o         1 MOL     -0.495084
    138 C47        -5.7460    3.6170    2.7050 c3        1 MOL      0.077871
    139 C48        -6.1680    2.7070    3.8090 c3        1 MOL     -0.353717
    140 C49        -5.9550    1.3730    3.1240 c3        1 MOL      0.119212
    141 H60        -7.3650    3.3430    1.4140 h1        1 MOL      0.140422
    142 H61        -4.6480    3.5850    2.7450 hc        1 MOL      0.057200
    143 H62        -6.0200    4.6550    2.9150 hc        1 MOL      0.057200
    144 H63        -5.4750    2.8050    4.6440 hc        1 MOL      0.106396
    145 H64        -7.2290    2.9080    3.9640 hc        1 MOL      0.106396
    146 H65        -4.9200    1.0720    3.0160 h1        1 MOL      0.063434
    147 H66        -6.4860    0.5910    3.6680 h1        1 MOL      0.063434
    148 N13        -4.7160    2.7350   -0.5800 n         1 MOL     -0.111419
    149 C50        -4.1710    3.1240   -1.8590 c3        1 MOL     -0.075252
    150 C51        -5.3040    3.2880   -2.9420 c         1 MOL      0.387016
    151 O21        -5.1440    4.3000   -3.6610 o         1 MOL     -0.538699
    152 C52        -3.0580    2.2080   -2.3780 c3        1 MOL      0.048383
    153 C53        -1.9330    1.8960   -1.3350 c3        1 MOL     -0.030895
    154 C54        -2.1110    0.7180   -0.3830 c         1 MOL      0.668020
    155 O22        -1.1530   -0.0650   -0.2330 o         1 MOL     -0.611941
    156 O23        -3.1240    0.5900    0.2780 o         1 MOL     -0.611941
    157 H67        -4.5650    1.7920   -0.2590 hn        1 MOL      0.194525
    158 H68        -3.6530    4.0640   -1.6560 h1        1 MOL      0.120229
    159 H69        -2.6640    2.7560   -3.2370 hc        1 MOL     -0.014973
    160 H70        -3.4450    1.2230   -2.6680 hc        1 MOL     -0.014973
    161 H71        -1.6990    2.7960   -0.7700 hc        1 MOL     -0.007542
    162 H72        -1.0660    1.7120   -1.9740 hc        1 MOL     -0.007542
    163 N14        -6.3600    2.4760   -2.9440 n         1 MOL     -0.089423
    164 C55        -7.4280    2.5000   -3.9160 c3        1 MOL     -0.171214
    165 H73        -7.2930    1.6810   -4.6230 h1        1 MOL      0.073617
    166 H74        -8.3850    2.3880   -3.4080 h1        1 MOL      0.073617
    167 H75        -7.4100    3.4480   -4.4530 h1        1 MOL      0.073617
    168 H76        -6.3700    1.7210   -2.2690 hn        1 MOL      0.162118
    169 Ca1         1.0420   -0.3970    1.1150 Ca        1 MOL      1.776886
    170 O24         1.5160    0.9530   -1.2040 oh        1 MOL     -0.879025
    171 H77         1.2680    0.6430   -2.0740 ho        1 MOL      0.417097
    172 H78         2.1840    1.6240   -1.3570 ho        1 MOL      0.417097
    173 O25         2.6100   -2.6060    1.3220 oh        1 MOL     -0.879025
    174 H79         2.4570   -3.4560    0.8960 ho        1 MOL      0.417097
    175 H80         3.1080   -2.8270    2.1130 ho        1 MOL      0.417097
    176 O26         0.7910    2.3350    1.2060 oh        1 MOL     -0.879025
    177 H81         1.3980    2.9380    1.6350 ho        1 MOL      0.417097
    178 H82         0.5290    2.7950    0.4070 ho        1 MOL      0.417097
@<TRIPOS>BOND
     1    1    2 1   
     2    1    4 1   
     3    1    5 1   
     4    1    6 1   
     5    2    3 2   
     6    2    7 1   
     7    7    8 1   
     8    7   15 1   
     9    8    9 1   
    10    8   11 1   
    11    8   16 1   
    12    9   10 2   
    13    9   19 1   
    14   11   12 1   
    15   11   17 1   
    16   11   18 1   
    17   12   13 1   
    18   12   14 1   
    19   19   20 1   
    20   19   24 1   
    21   20   21 1   
    22   20   23 1   
    23   20   25 1   
    24   21   22 2   
    25   21   29 1   
    26   23   26 1   
    27   23   27 1   
    28   23   28 1   
    29   29   30 1   
    30   29   37 1   
    31   30   31 1   
    32   30   33 1   
    33   30   38 1   
    34   31   32 2   
    35   31   41 1   
    36   33   34 1   
    37   33   39 1   
    38   33   40 1   
    39   34   35 1   
    40   34   36 1   
    41   41   42 1   
    42   41   45 1   
    43   42   43 1   
    44   42   46 1   
    45   42   47 1   
    46   43   44 2   
    47   43   48 1   
    48   48   49 1   
    49   48   56 1   
    50   49   50 1   
    51   49   52 1   
    52   49   57 1   
    53   50   51 2   
    54   50   62 1   
    55   52   53 1   
    56   52   58 1   
    57   52   59 1   
    58   53   54 1   
    59   53   55 2   
    60   54   60 1   
    61   54   61 1   
    62   62   63 1   
    63   62   66 1   
    64   63   64 1   
    65   63   67 1   
    66   63   68 1   
    67   64   65 2   
    68   64   69 1   
    69   69   70 1   
    70   69   76 1   
    71   70   71 1   
    72   70   73 1   
    73   70   77 1   
    74   71   72 2   
    75   71   83 1   
    76   73   74 1   
    77   73   75 1   
    78   73   78 1   
    79   74   80 1   
    80   74   81 1   
    81   74   82 1   
    82   75   79 1   
    83   83   84 1   
    84   83   91 1   
    85   84   85 1   
    86   84   87 1   
    87   84   92 1   
    88   85   86 2   
    89   85  102 1   
    90   87   88 1   
    91   87   89 1   
    92   87   93 1   
    93   88   90 1   
    94   88   94 1   
    95   88   95 1   
    96   89   96 1   
    97   89   97 1   
    98   89   98 1   
    99   90   99 1   
   100   90  100 1   
   101   90  101 1   
   102  102  103 1   
   103  102  110 1   
   104  103  104 1   
   105  103  106 1   
   106  103  111 1   
   107  104  105 2   
   108  104  114 1   
   109  106  107 1   
   110  106  112 1   
   111  106  113 1   
   112  107  108 1   
   113  107  109 1   
   114  114  115 1   
   115  114  125 1   
   116  115  116 1   
   117  115  118 1   
   118  115  126 1   
   119  116  117 2   
   120  116  134 1   
   121  118  119 1   
   122  118  127 1   
   123  118  128 1   
   124  119  120 ar  
   125  119  121 ar  
   126  120  122 ar  
   127  120  129 1   
   128  121  123 ar  
   129  121  130 1   
   130  122  124 ar  
   131  122  131 1   
   132  123  124 ar  
   133  123  132 1   
   134  124  133 1   
   135  134  135 1   
   136  134  140 1   
   137  135  136 1   
   138  135  138 1   
   139  135  141 1   
   140  136  137 2   
   141  136  148 1   
   142  138  139 1   
   143  138  142 1   
   144  138  143 1   
   145  139  140 1   
   146  139  144 1   
   147  139  145 1   
   148  140  146 1   
   149  140  147 1   
   150  148  149 1   
   151  148  157 1   
   152  149  150 1   
   153  149  152 1   
   154  149  158 1   
   155  150  151 2   
   156  150  163 1   
   157  152  153 1   
   158  152  159 1   
   159  152  160 1   
   160  153  154 1   
   161  153  161 1   
   162  153  162 1   
   163  154  155 1   
   164  154  156 1   
   165  163  164 1   
   166  163  168 1   
   167  164  165 1   
   168  164  166 1   
   169  164  167 1   
   170  170  171 1   
   171  170  172 1   
   172  173  174 1   
   173  173  175 1   
   174  176  177 1   
   175  176  178 1   
@<TRIPOS>SUBSTRUCTURE
     1 MOL         1 TEMP              0 ****  ****    0 ROOT
