@<TRIPOS>MOLECULE
MOL
  188   182     1     0     0
SMALL
resp


@<TRIPOS>ATOM
      1 C1         -6.1870    0.7250    3.9140 c3        1 MOL     -0.327213
      2 C2         -6.3160   -0.2410    2.6850 c         1 MOL      0.459462
      3 O1         -5.4960   -0.1600    1.7130 o         1 MOL     -0.458601
      4 H1         -5.3460    0.4130    4.5340 hc        1 MOL      0.092481
      5 H2         -6.0180    1.7430    3.5610 hc        1 MOL      0.092481
      6 H3         -7.1030    0.6910    4.5020 hc        1 MOL      0.092481
      7 N1         -7.3910   -1.1040    2.6750 n         1 MOL     -0.399011
      8 C3         -7.8330   -1.9670    1.5710 c3        1 MOL      0.180108
      9 C4         -7.9750   -1.2280    0.2370 c         1 MOL      0.463573
     10 O2         -7.6900   -1.8340   -0.7660 o         1 MOL     -0.437083
     11 C5         -6.9360   -3.2230    1.4820 c3        1 MOL     -0.425112
     12 C6         -7.4840   -4.3720    0.5750 c         1 MOL      0.738166
     13 O3         -8.7460   -4.6160    0.5120 o         1 MOL     -0.637237
     14 O4         -6.7030   -5.0220   -0.1270 o         1 MOL     -0.637237
     15 H4         -8.0060   -1.0550    3.4730 hn        1 MOL      0.285095
     16 H5         -8.8560   -2.2850    1.8170 h1        1 MOL      0.017732
     17 H6         -6.8340   -3.6470    2.4890 hc        1 MOL      0.115490
     18 H7         -5.9270   -2.8920    1.2130 hc        1 MOL      0.115490
     19 N2         -8.2890    0.0490    0.2980 n         1 MOL     -0.359158
     20 C7         -8.3920    1.0790   -0.8030 c3        1 MOL     -0.075634
     21 C8         -7.0370    1.4560   -1.4240 c         1 MOL      0.535611
     22 O5         -6.9430    2.1710   -2.4340 o         1 MOL     -0.569182
     23 C9         -9.3050    2.3110   -0.4710 c3        1 MOL      0.115095
     24 C10        -8.8960    3.0260    0.8600 c3        1 MOL     -0.060684
     25 C11        -9.8800    4.2300    1.0010 c3        1 MOL      0.051297
     26 C12        -9.4880    5.2820    2.0580 c3        1 MOL     -0.075317
     27 N3        -10.4580    6.4250    2.0980 n4        1 MOL     -0.024139
     28 H8         -8.5550    0.2730    1.2530 hn        1 MOL      0.184282
     29 H9         -8.9100    0.6280   -1.6470 h1        1 MOL      0.129437
     30 H10       -10.3670    2.0650   -0.4610 hc        1 MOL      0.006103
     31 H11        -9.2070    3.0750   -1.2380 hc        1 MOL      0.006103
     32 H12        -7.8990    3.4030    0.6540 hc        1 MOL      0.036515
     33 H13        -8.9020    2.3920    1.7530 hc        1 MOL      0.036515
     34 H14       -10.8570    3.7990    1.2340 hc        1 MOL      0.008235
     35 H15        -9.9520    4.7790    0.0710 hc        1 MOL      0.008235
     36 H16        -8.5070    5.6260    1.7370 hx        1 MOL      0.084355
     37 H17        -9.4910    4.7550    3.0090 hx        1 MOL      0.084355
     38 H18       -11.4180    6.0890    2.1600 hn        1 MOL      0.172577
     39 H19       -10.3940    7.0700    2.8720 hn        1 MOL      0.172577
     40 H20       -10.4830    6.8350    1.1750 hn        1 MOL      0.172577
     41 N4         -5.8920    1.1540   -0.8120 n         1 MOL     -0.348059
     42 C13        -4.5740    1.4850   -1.3860 c3        1 MOL      0.049439
     43 C14        -4.3120    0.8270   -2.7800 c         1 MOL      0.555760
     44 O6         -4.6260   -0.3310   -3.1270 o         1 MOL     -0.447496
     45 C15        -3.4270    1.0990   -0.4590 c3        1 MOL     -0.002778
     46 C16        -2.0610    1.4010   -0.8800 c         1 MOL      0.578084
     47 O7         -1.4430    2.4390   -0.4850 o         1 MOL     -0.688035
     48 O8         -1.4530    0.6850   -1.7460 o         1 MOL     -0.688035
     49 H21        -5.9150    0.5060   -0.0410 hn        1 MOL      0.159688
     50 H22        -4.5290    2.5610   -1.5660 h1        1 MOL      0.039090
     51 H23        -3.4880    0.0380   -0.2140 hc        1 MOL      0.023980
     52 H24        -3.5360    1.6090    0.5050 hc        1 MOL      0.023980
     53 N5         -3.5980    1.5490   -3.6260 n         1 MOL     -0.339039
     54 C17        -3.3100    1.0370   -4.9710 c3        1 MOL     -0.206264
     55 C18        -2.6060   -0.3270   -5.1380 c         1 MOL      0.600819
     56 O9         -2.6110   -0.9100   -6.2220 o         1 MOL     -0.564352
     57 H25        -3.2970    2.4920   -3.4250 hn        1 MOL      0.269690
     58 H26        -2.6310    1.7600   -5.4260 h1        1 MOL      0.104648
     59 H27        -4.2330    0.9530   -5.5370 h1        1 MOL      0.104648
     60 N6         -1.9810   -0.8460   -4.0790 n         1 MOL     -0.234262
     61 C19        -1.4790   -2.1890   -3.9860 c3        1 MOL      0.052288
     62 C20        -2.0580   -2.9610   -2.7500 c         1 MOL      0.394087
     63 O10        -1.3780   -3.8650   -2.2730 o         1 MOL     -0.504015
     64 C21         0.0790   -2.3000   -3.9830 c3        1 MOL     -0.433058
     65 C22         0.7650   -1.4980   -2.9600 c         1 MOL      0.478663
     66 N7          0.7170   -1.9940   -1.7360 n         1 MOL     -0.130676
     67 O11         1.3050   -0.4060   -3.1890 o         1 MOL     -0.615379
     68 H28        -1.9660   -0.3010   -3.2350 hn        1 MOL      0.063033
     69 H29        -1.7800   -2.7580   -4.8620 h1        1 MOL      0.122286
     70 H30         0.4000   -1.8700   -4.9320 hc        1 MOL      0.156350
     71 H31         0.3020   -3.3700   -3.9030 hc        1 MOL      0.156350
     72 H32         0.1740   -2.8350   -1.6640 hn        1 MOL      0.158692
     73 H33         0.8250   -1.3900   -0.9250 hn        1 MOL      0.158692
     74 N8         -3.1250   -2.5140   -2.1330 n         1 MOL     -0.156904
     75 C23        -3.6060   -3.0640   -0.8390 c3        1 MOL     -0.128623
     76 C24        -2.7550   -2.8530    0.4740 c         1 MOL      0.398350
     77 O12        -2.9850   -3.4730    1.5260 o         1 MOL     -0.505288
     78 H34        -3.6790   -1.7680   -2.5050 hn        1 MOL      0.154857
     79 H35        -3.7840   -4.1440   -0.9090 h1        1 MOL      0.160601
     80 H36        -4.5870   -2.6250   -0.6550 h1        1 MOL      0.160601
     81 N9         -1.8100   -1.8940    0.5020 n         1 MOL     -0.027189
     82 C25        -1.1000   -1.5400    1.6970 c3        1 MOL     -0.079591
     83 C26         0.3350   -0.9370    1.3990 c         1 MOL      0.558899
     84 O13         0.4590   -0.2590    0.3510 o         1 MOL     -0.501598
     85 C27        -1.9380   -0.6090    2.5710 c3        1 MOL     -0.125084
     86 C28        -1.3430    0.0570    3.7330 ca        1 MOL     -0.059781
     87 C29        -1.0950   -0.6840    4.9330 ca        1 MOL     -0.020660
     88 C30        -1.0520    1.4080    3.5990 ca        1 MOL     -0.020660
     89 C31        -0.5770    0.0390    5.9830 ca        1 MOL     -0.425408
     90 C32        -0.6460    2.2030    4.7150 ca        1 MOL     -0.425408
     91 C33        -0.3250    1.4610    5.9190 ca        1 MOL      0.494263
     92 O14         0.1630    2.1350    6.9510 oh        1 MOL     -0.540878
     93 H37        -1.7510   -1.2630   -0.2830 hn        1 MOL     -0.124853
     94 H38        -0.8440   -2.3650    2.3680 h1        1 MOL      0.071977
     95 H39        -2.7800   -1.1840    2.9450 hc        1 MOL      0.124109
     96 H40        -2.3990    0.2010    2.0100 hc        1 MOL      0.124109
     97 H41        -1.3160   -1.7380    5.0390 ha        1 MOL      0.123737
     98 H42        -1.1950    1.9090    2.6490 ha        1 MOL      0.123737
     99 H43        -0.5070   -0.4700    6.9320 ha        1 MOL      0.181041
    100 H44        -0.3870    3.2480    4.7010 ha        1 MOL      0.181041
    101 H45         0.4850    3.0370    6.8220 ho        1 MOL      0.401358
    102 N10         1.2600   -1.2650    2.2590 n         1 MOL     -0.454567
    103 C34         2.6920   -0.8700    2.1160 c3        1 MOL     -0.291467
    104 C35         3.3850   -1.6880    0.9620 c         1 MOL      0.078449
    105 O15         4.2180   -1.2210    0.2470 o         1 MOL     -0.254837
    106 C36         3.5130   -1.0560    3.4520 c3        1 MOL      0.310986
    107 C37         2.8430   -0.2270    4.6080 c3        1 MOL     -0.093032
    108 C38         4.9890   -0.7680    3.2290 c3        1 MOL     -0.331771
    109 C39         3.4000   -0.3070    6.0020 c3        1 MOL     -0.025253
    110 H46         1.0180   -1.7850    3.0910 hn        1 MOL      0.313278
    111 H47         2.7780    0.1810    1.8470 h1        1 MOL      0.179688
    112 H48         3.5390   -2.1120    3.7180 hc        1 MOL     -0.043765
    113 H49         1.8270   -0.5820    4.7570 hc        1 MOL      0.039827
    114 H50         2.7780    0.8330    4.3510 hc        1 MOL      0.039827
    115 H51         5.4800   -0.9260    4.1860 hc        1 MOL      0.098940
    116 H52         5.3730   -1.5410    2.5590 hc        1 MOL      0.098940
    117 H53         4.9590    0.3040    3.0350 hc        1 MOL      0.098940
    118 H54         3.3420    0.6650    6.4970 hc        1 MOL      0.013035
    119 H55         2.8730   -1.0070    6.6410 hc        1 MOL      0.013035
    120 H56         4.4630   -0.5300    6.1110 hc        1 MOL      0.013035
    121 N11         2.9990   -2.8760    0.7850 n         1 MOL     -0.018940
    122 C40         3.3550   -3.6250   -0.4450 c3        1 MOL     -0.082812
    123 C41         4.8660   -3.9840   -0.5350 c         1 MOL      0.379123
    124 O16         5.2750   -4.3500   -1.5700 o         1 MOL     -0.425621
    125 C42         2.6030   -4.9400   -0.4860 c3        1 MOL      0.032069
    126 O17         1.1650   -4.7970   -0.4200 oh        1 MOL     -0.589899
    127 H57         2.2880   -3.2070    1.4190 hn        1 MOL      0.254511
    128 H58         3.1250   -3.0620   -1.3530 h1        1 MOL      0.118295
    129 H59         2.9860   -5.5410    0.3340 h1        1 MOL      0.073908
    130 H60         2.7350   -5.3920   -1.4650 h1        1 MOL      0.073908
    131 H61         0.7800   -5.5780   -0.8240 ho        1 MOL      0.427982
    132 N12         5.6490   -3.8120    0.6120 n         1 MOL     -0.380617
    133 C43         7.1280   -3.6420    0.7260 c3        1 MOL      0.383668
    134 C44         7.6760   -2.7530   -0.3710 c         1 MOL      0.303885
    135 O18         8.6870   -3.0500   -0.9980 o         1 MOL     -0.502609
    136 C45         7.7150   -5.0510    0.7680 c3        1 MOL     -0.346256
    137 H62         5.0960   -3.7400    1.4510 hn        1 MOL      0.198076
    138 H63         7.3620   -3.1340    1.6620 h1        1 MOL      0.003584
    139 H64         8.7890   -4.9980    0.9260 hc        1 MOL      0.088570
    140 H65         7.1690   -5.6390    1.5020 hc        1 MOL      0.088570
    141 H66         7.5250   -5.3510   -0.2660 hc        1 MOL      0.088570
    142 N13         6.9940   -1.6240   -0.6250 n         1 MOL     -0.056116
    143 C46         7.5460   -0.5140   -1.4220 c3        1 MOL      0.203422
    144 C47         7.8310    0.6310   -0.4400 c         1 MOL      0.540925
    145 O19         7.1110    0.7750    0.5450 o         1 MOL     -0.456107
    146 C48         6.4950   -0.2420   -2.4720 c3        1 MOL      0.017462
    147 H67         6.2740   -1.2780   -0.0100 hn        1 MOL     -0.148466
    148 H68         8.4660   -0.8000   -1.9440 h1        1 MOL     -0.012762
    149 H69         5.5180   -0.0030   -2.0510 hc        1 MOL     -0.009427
    150 H70         6.7890    0.6180   -3.0810 hc        1 MOL     -0.009427
    151 H71         6.4090   -1.1080   -3.1250 hc        1 MOL     -0.009427
    152 N14         8.6710    1.5840   -0.8330 n         1 MOL     -0.683801
    153 C49         8.9310    2.8930   -0.1240 c3        1 MOL      0.086248
    154 C50         9.3050    2.8280    1.3730 c         1 MOL      0.425035
    155 O20         9.2160    3.8380    2.0480 o         1 MOL     -0.481115
    156 C51         7.9800    4.0120   -0.4850 c3        1 MOL      0.179478
    157 C52         7.7120    4.2430   -1.9600 c3        1 MOL     -0.215959
    158 C53         6.5890    5.3550   -2.0470 c         1 MOL      0.637988
    159 O21         5.4140    5.0760   -1.7130 o         1 MOL     -0.682360
    160 O22         6.9380    6.4570   -2.5190 o         1 MOL     -0.682360
    161 H72         9.1570    1.4280   -1.7020 hn        1 MOL      0.356850
    162 H73         9.8760    3.2590   -0.5330 h1        1 MOL      0.048204
    163 H74         8.2940    4.9610   -0.0710 hc        1 MOL     -0.010928
    164 H75         7.1020    3.7010    0.0730 hc        1 MOL     -0.010928
    165 H76         7.3890    3.3430   -2.5000 hc        1 MOL      0.030666
    166 H77         8.6100    4.6460   -2.4150 hc        1 MOL      0.030666
    167 N15         9.6310    1.5940    1.9610 n         1 MOL     -0.325148
    168 C54         9.8970    1.3610    3.3720 c3        1 MOL     -0.043092
    169 H78         9.5740    2.2270    3.9500 h1        1 MOL      0.057793
    170 H79         9.3500    0.4780    3.7040 h1        1 MOL      0.057793
    171 H80        10.9660    1.2050    3.5200 h1        1 MOL      0.057793
    172 H81         9.5060    0.7800    1.3850 hn        1 MOL      0.216540
    173 Ca1         0.8310    1.8220   -1.7420 Ca        1 MOL      1.803908
    174 O23         0.4020    4.6250   -1.7880 oh        1 MOL     -0.858333
    175 H82         0.1190    5.1230   -2.5600 ho        1 MOL      0.427067
    176 H83         1.1670    5.0870   -1.4550 ho        1 MOL      0.427067
    177 O24         2.7580    2.8690   -3.5820 oh        1 MOL     -0.858333
    178 H84         3.2720    3.6090   -3.8940 ho        1 MOL      0.427067
    179 H85         2.7450    2.2560   -4.3240 ho        1 MOL      0.427067
    180 O25        -0.2260    2.6220   -4.0470 oh        1 MOL     -0.858333
    181 H86        -1.0350    3.0860   -3.8380 ho        1 MOL      0.427067
    182 H87        -0.3810    2.2620   -4.9260 ho        1 MOL      0.427067
    183 O26         3.2370    0.7330   -1.3560 oh        1 MOL     -0.858333
    184 H88         3.7280    1.5030   -1.0830 ho        1 MOL      0.427067
    185 H89         3.8480    0.0010   -1.2220 ho        1 MOL      0.427067
    186 O27         2.1560    2.7750    0.3890 oh        1 MOL     -0.858333
    187 H90         3.0420    3.1080    0.4780 ho        1 MOL      0.427067
    188 H91         1.6590    3.2390    1.0810 ho        1 MOL      0.427067
@<TRIPOS>BOND
     1    1    2 1   
     2    1    4 1   
     3    1    5 1   
     4    1    6 1   
     5    2    3 2   
     6    2    7 1   
     7    7    8 1   
     8    7   15 1   
     9    8    9 1   
    10    8   11 1   
    11    8   16 1   
    12    9   10 2   
    13    9   19 1   
    14   11   12 1   
    15   11   17 1   
    16   11   18 1   
    17   12   13 1   
    18   12   14 1   
    19   19   20 1   
    20   19   28 1   
    21   20   21 1   
    22   20   23 1   
    23   20   29 1   
    24   21   22 2   
    25   21   41 1   
    26   23   24 1   
    27   23   30 1   
    28   23   31 1   
    29   24   25 1   
    30   24   32 1   
    31   24   33 1   
    32   25   26 1   
    33   25   34 1   
    34   25   35 1   
    35   26   27 1   
    36   26   36 1   
    37   26   37 1   
    38   27   38 1   
    39   27   39 1   
    40   27   40 1   
    41   41   42 1   
    42   41   49 1   
    43   42   43 1   
    44   42   45 1   
    45   42   50 1   
    46   43   44 2   
    47   43   53 1   
    48   45   46 1   
    49   45   51 1   
    50   45   52 1   
    51   46   47 1   
    52   46   48 1   
    53   53   54 1   
    54   53   57 1   
    55   54   55 1   
    56   54   58 1   
    57   54   59 1   
    58   55   56 2   
    59   55   60 1   
    60   60   61 1   
    61   60   68 1   
    62   61   62 1   
    63   61   64 1   
    64   61   69 1   
    65   62   63 2   
    66   62   74 1   
    67   64   65 1   
    68   64   70 1   
    69   64   71 1   
    70   65   66 1   
    71   65   67 2   
    72   66   72 1   
    73   66   73 1   
    74   74   75 1   
    75   74   78 1   
    76   75   76 1   
    77   75   79 1   
    78   75   80 1   
    79   76   77 2   
    80   76   81 1   
    81   81   82 1   
    82   81   93 1   
    83   82   83 1   
    84   82   85 1   
    85   82   94 1   
    86   83   84 2   
    87   83  102 1   
    88   85   86 1   
    89   85   95 1   
    90   85   96 1   
    91   86   87 ar  
    92   86   88 ar  
    93   87   89 ar  
    94   87   97 1   
    95   88   90 ar  
    96   88   98 1   
    97   89   91 ar  
    98   89   99 1   
    99   90   91 ar  
   100   90  100 1   
   101   91   92 1   
   102   92  101 1   
   103  102  103 1   
   104  102  110 1   
   105  103  104 1   
   106  103  106 1   
   107  103  111 1   
   108  104  105 2   
   109  104  121 1   
   110  106  107 1   
   111  106  108 1   
   112  106  112 1   
   113  107  109 1   
   114  107  113 1   
   115  107  114 1   
   116  108  115 1   
   117  108  116 1   
   118  108  117 1   
   119  109  118 1   
   120  109  119 1   
   121  109  120 1   
   122  121  122 1   
   123  121  127 1   
   124  122  123 1   
   125  122  125 1   
   126  122  128 1   
   127  123  124 2   
   128  123  132 1   
   129  125  126 1   
   130  125  129 1   
   131  125  130 1   
   132  126  131 1   
   133  132  133 1   
   134  132  137 1   
   135  133  134 1   
   136  133  136 1   
   137  133  138 1   
   138  134  135 2   
   139  134  142 1   
   140  136  139 1   
   141  136  140 1   
   142  136  141 1   
   143  142  143 1   
   144  142  147 1   
   145  143  144 1   
   146  143  146 1   
   147  143  148 1   
   148  144  145 2   
   149  144  152 1   
   150  146  149 1   
   151  146  150 1   
   152  146  151 1   
   153  152  153 1   
   154  152  161 1   
   155  153  154 1   
   156  153  156 1   
   157  153  162 1   
   158  154  155 2   
   159  154  167 1   
   160  156  157 1   
   161  156  163 1   
   162  156  164 1   
   163  157  158 1   
   164  157  165 1   
   165  157  166 1   
   166  158  159 1   
   167  158  160 1   
   168  167  168 1   
   169  167  172 1   
   170  168  169 1   
   171  168  170 1   
   172  168  171 1   
   173  174  175 1   
   174  174  176 1   
   175  177  178 1   
   176  177  179 1   
   177  180  181 1   
   178  180  182 1   
   179  183  184 1   
   180  183  185 1   
   181  186  187 1   
   182  186  188 1   
@<TRIPOS>SUBSTRUCTURE
     1 MOL         1 TEMP              0 ****  ****    0 ROOT
