@<TRIPOS>MOLECULE
MOL
  184   179     1     0     0
SMALL
resp


@<TRIPOS>ATOM
      1 C1          6.5790   -6.3320    4.2140 c3        1 MOL     -0.241498
      2 C2          5.9370   -5.1700    3.3760 c         1 MOL      0.577120
      3 O1          5.0240   -4.4350    3.7390 o         1 MOL     -0.558211
      4 H1          6.2370   -7.2910    3.8240 hc        1 MOL      0.052378
      5 H2          7.6660   -6.2770    4.1390 hc        1 MOL      0.052378
      6 H3          6.2810   -6.2370    5.2570 hc        1 MOL      0.052378
      7 N1          6.4360   -4.8140    2.2320 n         1 MOL     -0.362989
      8 C3          7.6800   -5.2510    1.5260 c3        1 MOL      0.053949
      9 C4          7.3700   -5.5950    0.0990 c         1 MOL      0.554147
     10 O2          6.2570   -6.0550   -0.1230 o         1 MOL     -0.508557
     11 C5          8.7990   -4.1910    1.7770 c3        1 MOL     -0.127797
     12 C6          8.3410   -2.7040    1.3410 c         1 MOL      0.722294
     13 O3          8.6350   -2.3200    0.2070 o         1 MOL     -0.737425
     14 O4          7.9150   -1.8970    2.1370 o         1 MOL     -0.737425
     15 H4          5.9010   -4.1360    1.7100 hn        1 MOL      0.319420
     16 H5          8.0500   -6.1890    1.9500 h1        1 MOL      0.042832
     17 H6          9.7150   -4.4910    1.2760 hc        1 MOL     -0.003154
     18 H7          9.0270   -4.0380    2.8310 hc        1 MOL     -0.003154
     19 N2          8.3790   -5.5370   -0.7740 n         1 MOL     -0.630838
     20 C7          8.1720   -5.4740   -2.2530 c3        1 MOL      0.438946
     21 C8          7.0070   -4.5430   -2.7070 c         1 MOL      0.215163
     22 O5          6.1740   -4.8720   -3.5000 o         1 MOL     -0.479611
     23 C9          8.0480   -6.9050   -2.7680 c3        1 MOL     -0.489667
     24 H8          9.2600   -5.2150   -0.3920 hn        1 MOL      0.323834
     25 H9          9.0590   -5.0050   -2.6620 h1        1 MOL     -0.022514
     26 H10         8.9120   -7.5270   -2.5370 hc        1 MOL      0.126953
     27 H11         7.2080   -7.3800   -2.2640 hc        1 MOL      0.126953
     28 H12         7.9310   -6.8850   -3.8560 hc        1 MOL      0.126953
     29 N3          6.8070   -3.4020   -2.0280 n         1 MOL      0.110064
     30 C10         5.9020   -2.3870   -2.4290 c3        1 MOL     -0.080101
     31 C11         6.6730   -1.1040   -2.6970 c         1 MOL      0.419111
     32 O6          7.7240   -0.9070   -2.1440 o         1 MOL     -0.525541
     33 C12         4.7900   -2.2190   -1.4250 c3        1 MOL     -0.136171
     34 C13         5.1860   -1.9480    0.0650 c         1 MOL      0.678413
     35 O7          5.6900   -0.8170    0.3450 o         1 MOL     -0.651656
     36 O8          4.9630   -2.8750    0.8880 o         1 MOL     -0.651656
     37 H13         7.4660   -3.1060   -1.3150 hn        1 MOL     -0.001201
     38 H14         5.3310   -2.5970   -3.3370 h1        1 MOL      0.062168
     39 H15         4.1330   -3.0890   -1.4850 hc        1 MOL      0.057664
     40 H16         4.2140   -1.3230   -1.6530 hc        1 MOL      0.057664
     41 N4          6.0230   -0.0910   -3.4020 n         1 MOL     -0.321175
     42 C14         6.3890    1.2700   -3.6240 c3        1 MOL     -0.236368
     43 C15         6.2500    2.2910   -2.3790 c         1 MOL      0.688814
     44 O9          6.4390    1.8970   -1.1830 o         1 MOL     -0.676923
     45 H17         5.1760   -0.3280   -3.8960 hn        1 MOL      0.284774
     46 H18         5.9230    1.6060   -4.5470 h1        1 MOL      0.116719
     47 H19         7.4660    1.3430   -3.7820 h1        1 MOL      0.116719
     48 N5          5.9740    3.5500   -2.6300 n         1 MOL     -0.538864
     49 C16         5.6910    4.5780   -1.5780 c3        1 MOL      0.289516
     50 C17         4.3090    4.1620   -0.8450 c         1 MOL      0.551038
     51 O10         3.3120    3.8090   -1.5110 o         1 MOL     -0.511344
     52 C18         5.4740    5.9240   -2.2790 c3        1 MOL     -0.509772
     53 C19         6.8180    6.4590   -2.9370 c         1 MOL      0.738161
     54 N6          7.7180    7.0660   -2.1530 n         1 MOL     -0.800171
     55 O11         7.1430    6.2750   -4.1100 o         1 MOL     -0.559397
     56 H20         5.7770    3.6060   -3.6200 hn        1 MOL      0.279935
     57 H21         6.4770    4.6490   -0.8280 h1        1 MOL     -0.044420
     58 H22         5.1510    6.6510   -1.5370 hc        1 MOL      0.166285
     59 H23         4.6440    5.8680   -2.9850 hc        1 MOL      0.166285
     60 H24         7.5280    7.2010   -1.1650 hn        1 MOL      0.355415
     61 H25         8.5850    7.3690   -2.5560 hn        1 MOL      0.355415
     62 N7          4.2870    4.2220    0.4460 n         1 MOL     -0.409962
     63 C20         3.0410    4.0990    1.1600 c3        1 MOL     -0.037259
     64 C21         2.1530    5.3930    0.9780 c         1 MOL      0.588271
     65 O12         2.6670    6.4420    0.5470 o         1 MOL     -0.576617
     66 H26         5.1480    4.5410    0.8500 hn        1 MOL      0.236104
     67 H27         3.2950    3.9670    2.2130 h1        1 MOL      0.098059
     68 H28         2.4550    3.2590    0.7860 h1        1 MOL      0.098059
     69 N8          0.8840    5.3750    1.4440 n         1 MOL     -0.496756
     70 C22         0.1970    4.3210    2.1680 c3        1 MOL     -0.122805
     71 C23        -1.1720    4.0120    1.5890 c         1 MOL      0.645564
     72 O13        -1.9560    4.8920    1.3480 o         1 MOL     -0.518970
     73 C24         0.1590    4.6010    3.6560 c3        1 MOL      0.366230
     74 C25        -0.3540    3.4730    4.5410 c3        1 MOL     -0.298664
     75 O14         1.4620    4.8280    4.1450 oh        1 MOL     -0.624398
     76 H29         0.3850    6.2570    1.3850 hn        1 MOL      0.324908
     77 H30         0.8040    3.4090    2.1630 h1        1 MOL      0.069981
     78 H31        -0.4040    5.5220    3.7930 h1        1 MOL      0.008858
     79 H32         1.4700    5.7850    4.2550 ho        1 MOL      0.374135
     80 H33        -1.2960    3.0660    4.1570 hc        1 MOL      0.084244
     81 H34         0.3310    2.6410    4.3540 hc        1 MOL      0.084244
     82 H35        -0.4940    3.6610    5.6090 hc        1 MOL      0.084244
     83 N9         -1.3740    2.7400    1.2700 n         1 MOL     -0.497179
     84 C26        -2.6440    2.1860    0.7340 c3        1 MOL      0.025634
     85 C27        -3.7230    1.9160    1.7390 c         1 MOL      0.540293
     86 O15        -3.5490    1.6520    2.9090 o         1 MOL     -0.575470
     87 C28        -2.3110    0.9380   -0.1600 c3        1 MOL      0.090382
     88 C29        -1.2940   -0.1260    0.3510 c3        1 MOL     -0.265198
     89 C30        -1.8170    1.4090   -1.5100 c3        1 MOL     -0.443895
     90 C31        -1.5240   -0.8570    1.7240 c3        1 MOL     -0.070377
     91 H36        -0.6370    2.0850    1.4820 hn        1 MOL      0.306218
     92 H37        -3.0110    2.9450    0.0380 h1        1 MOL      0.132421
     93 H38        -3.2710    0.4450   -0.3410 hc        1 MOL      0.008957
     94 H39        -0.3110    0.3210    0.3790 hc        1 MOL      0.096089
     95 H40        -1.2120   -0.9510   -0.3600 hc        1 MOL      0.096089
     96 H41        -1.0240    2.1500   -1.4460 hc        1 MOL      0.117094
     97 H42        -1.3580    0.5600   -2.0200 hc        1 MOL      0.117094
     98 H43        -2.7180    1.7740   -2.0040 hc        1 MOL      0.117094
     99 H44        -1.4060   -0.1270    2.5190 hc        1 MOL      0.023419
    100 H45        -2.5210   -1.2950    1.7670 hc        1 MOL      0.023419
    101 H46        -0.8880   -1.7350    1.8820 hc        1 MOL      0.023419
    102 N10        -5.0430    1.9080    1.4920 n         1 MOL     -0.296686
    103 C32        -5.8170    2.2390    0.2440 c3        1 MOL     -0.014208
    104 C33        -7.1290    1.5880    0.2540 c         1 MOL      0.506745
    105 O16        -7.6860    1.4130    1.3000 o         1 MOL     -0.482960
    106 C34        -5.9320    3.8050    0.0700 c3        1 MOL      0.006374
    107 C35        -6.0360    4.6180    1.3130 c         1 MOL      0.653235
    108 O17        -5.4200    5.7190    1.4300 o         1 MOL     -0.665144
    109 O18        -6.8020    4.2240    2.2180 o         1 MOL     -0.665144
    110 H47        -5.6600    1.5930    2.2220 hn        1 MOL      0.261395
    111 H48        -5.2270    1.9250   -0.6240 h1        1 MOL      0.047938
    112 H49        -6.7190    4.1240   -0.6230 hc        1 MOL     -0.035650
    113 H50        -5.0650    4.2250   -0.4400 hc        1 MOL     -0.035650
    114 N11        -7.6900    1.3020   -0.8950 n         1 MOL     -0.470940
    115 C36        -8.9490    0.6280   -1.0900 c3        1 MOL      0.307945
    116 C37        -8.9830   -0.4180   -2.2310 c         1 MOL      0.293615
    117 O19        -8.5890   -0.0450   -3.3390 o         1 MOL     -0.514098
    118 C38       -10.0730    1.6620   -1.1580 c3        1 MOL     -0.382358
    119 C39       -11.4480    1.0400   -1.1680 ca        1 MOL      0.158047
    120 C40       -12.1430    0.6960   -2.3150 ca        1 MOL     -0.265418
    121 C41       -12.1230    0.8370    0.1110 ca        1 MOL     -0.265418
    122 C42       -13.4120    0.1540   -2.1960 ca        1 MOL     -0.026857
    123 C43       -13.3990    0.1960    0.2070 ca        1 MOL     -0.026857
    124 C44       -14.0750   -0.1260   -0.9700 ca        1 MOL     -0.178355
    125 H51        -7.1860    1.4450   -1.7570 hn        1 MOL      0.285947
    126 H52        -9.1430    0.0790   -0.1700 h1        1 MOL     -0.041411
    127 H53        -9.8830    2.3030   -2.0210 hc        1 MOL      0.148547
    128 H54        -9.9540    2.2720   -0.2650 hc        1 MOL      0.148547
    129 H55       -11.6780    0.7840   -3.2880 ha        1 MOL      0.159953
    130 H56       -11.6830    1.1980    1.0380 ha        1 MOL      0.159953
    131 H57       -14.0080    0.0670   -3.0960 ha        1 MOL      0.078661
    132 H58       -13.8660    0.1300    1.1810 ha        1 MOL      0.078661
    133 H59       -15.1360   -0.2920   -0.9220 ha        1 MOL      0.096725
    134 N12        -9.5540   -1.5990   -1.9780 n         1 MOL      0.108375
    135 C45       -10.2570   -1.9900   -0.6950 c3        1 MOL      0.034609
    136 C46        -9.3010   -2.4380    0.4250 c         1 MOL      0.421202
    137 O20        -9.5960   -2.2600    1.6260 o         1 MOL     -0.594367
    138 C47       -11.1090   -3.2210   -1.0180 c3        1 MOL      0.061276
    139 C48       -11.2580   -3.1230   -2.5300 c3        1 MOL      0.015360
    140 C49        -9.9540   -2.6020   -2.9430 c3        1 MOL     -0.249982
    141 H60       -10.9330   -1.2120   -0.3390 h1        1 MOL      0.096864
    142 H61       -10.6150   -4.1440   -0.7100 hc        1 MOL      0.000754
    143 H62       -12.1310   -3.1590   -0.6510 hc        1 MOL      0.000754
    144 H63       -11.4400   -4.1180   -2.9480 hc        1 MOL     -0.016843
    145 H64       -12.0250   -2.4310   -2.8710 hc        1 MOL     -0.016843
    146 H65        -9.2640   -3.4490   -2.9470 h1        1 MOL      0.118194
    147 H66       -10.0120   -2.1860   -3.9500 h1        1 MOL      0.118194
    148 N13        -8.0750   -2.8690    0.1230 n         1 MOL     -0.150975
    149 C50        -7.1260   -3.5220    1.0370 c3        1 MOL      0.144279
    150 C51        -7.7970   -4.8430    1.4420 c         1 MOL      0.282705
    151 O21        -7.9960   -5.6920    0.5270 o         1 MOL     -0.549740
    152 C52        -5.7850   -3.7670    0.3430 c3        1 MOL     -0.262745
    153 C53        -5.1310   -2.5480   -0.3260 c3        1 MOL     -0.031296
    154 C54        -5.6200   -2.1080   -1.7160 c         1 MOL      0.660676
    155 O22        -4.9830   -1.2070   -2.2330 o         1 MOL     -0.665988
    156 O23        -6.5740   -2.5810   -2.3130 o         1 MOL     -0.665988
    157 H67        -7.7360   -2.8380   -0.8260 hn        1 MOL      0.091287
    158 H68        -6.9270   -2.9020    1.9120 h1        1 MOL      0.052927
    159 H69        -6.0050   -4.4980   -0.4290 hc        1 MOL      0.087550
    160 H70        -5.0600   -4.1660    1.0440 hc        1 MOL      0.087550
    161 H71        -4.0780   -2.8010   -0.3950 hc        1 MOL      0.027753
    162 H72        -5.1890   -1.6190    0.2420 hc        1 MOL      0.027753
    163 N14        -8.2560   -5.1420    2.6530 n         1 MOL     -0.228635
    164 C55        -8.4380   -4.2120    3.7590 c3        1 MOL     -0.143931
    165 H73        -9.1950   -3.4750    3.4920 h1        1 MOL      0.075001
    166 H74        -8.7600   -4.7590    4.6440 h1        1 MOL      0.075001
    167 H75        -7.4960   -3.7050    3.9670 h1        1 MOL      0.075001
    168 H76        -8.5540   -6.1030    2.7460 hn        1 MOL      0.246574
    169 Ca1         8.0320    0.2500    0.5260 Ca        1 MOL      1.822579
    170 O24         9.3150    0.4660    3.1410 oh        1 MOL     -0.813240
    171 H77         9.5130   -0.4690    3.1060 ho        1 MOL      0.391095
    172 H78         9.3490    0.6850    4.0690 ho        1 MOL      0.391095
    173 O25         8.5940    2.7550    0.6570 oh        1 MOL     -0.813240
    174 H79         8.0030    3.4980    0.7730 ho        1 MOL      0.391095
    175 H80         9.4720    3.1280    0.7420 ho        1 MOL      0.391095
    176 O26         6.4670    1.3980    2.4210 oh        1 MOL     -0.813240
    177 H81         5.5300    1.4440    2.2760 ho        1 MOL      0.391095
    178 H82         6.6210    1.9210    3.2140 ho        1 MOL      0.391095
    179 O27        10.8910   -0.1030    0.7230 oh        1 MOL     -0.813240
    180 H83        11.5870    0.1050    0.1040 ho        1 MOL      0.391095
    181 H84        11.2800   -0.7610    1.2980 ho        1 MOL      0.391095
    182 O28         9.2960    1.2510   -1.7460 oh        1 MOL     -0.813240
    183 H85         9.1420    0.6160   -2.4450 ho        1 MOL      0.391095
    184 H86         9.9210    1.8750   -2.1180 ho        1 MOL      0.391095
@<TRIPOS>BOND
     1    1    2 1   
     2    1    4 1   
     3    1    5 1   
     4    1    6 1   
     5    2    3 2   
     6    2    7 1   
     7    7    8 1   
     8    7   15 1   
     9    8    9 1   
    10    8   11 1   
    11    8   16 1   
    12    9   10 2   
    13    9   19 1   
    14   11   12 1   
    15   11   17 1   
    16   11   18 1   
    17   12   13 1   
    18   12   14 1   
    19   19   20 1   
    20   19   24 1   
    21   20   21 1   
    22   20   23 1   
    23   20   25 1   
    24   21   22 2   
    25   21   29 1   
    26   23   26 1   
    27   23   27 1   
    28   23   28 1   
    29   29   30 1   
    30   29   37 1   
    31   30   31 1   
    32   30   33 1   
    33   30   38 1   
    34   31   32 2   
    35   31   41 1   
    36   33   34 1   
    37   33   39 1   
    38   33   40 1   
    39   34   35 1   
    40   34   36 1   
    41   41   42 1   
    42   41   45 1   
    43   42   43 1   
    44   42   46 1   
    45   42   47 1   
    46   43   44 2   
    47   43   48 1   
    48   48   49 1   
    49   48   56 1   
    50   49   50 1   
    51   49   52 1   
    52   49   57 1   
    53   50   51 2   
    54   50   62 1   
    55   52   53 1   
    56   52   58 1   
    57   52   59 1   
    58   53   54 1   
    59   53   55 2   
    60   54   60 1   
    61   54   61 1   
    62   62   63 1   
    63   62   66 1   
    64   63   64 1   
    65   63   67 1   
    66   63   68 1   
    67   64   65 2   
    68   64   69 1   
    69   69   70 1   
    70   69   76 1   
    71   70   71 1   
    72   70   73 1   
    73   70   77 1   
    74   71   72 2   
    75   71   83 1   
    76   73   74 1   
    77   73   75 1   
    78   73   78 1   
    79   74   80 1   
    80   74   81 1   
    81   74   82 1   
    82   75   79 1   
    83   83   84 1   
    84   83   91 1   
    85   84   85 1   
    86   84   87 1   
    87   84   92 1   
    88   85   86 2   
    89   85  102 1   
    90   87   88 1   
    91   87   89 1   
    92   87   93 1   
    93   88   90 1   
    94   88   94 1   
    95   88   95 1   
    96   89   96 1   
    97   89   97 1   
    98   89   98 1   
    99   90   99 1   
   100   90  100 1   
   101   90  101 1   
   102  102  103 1   
   103  102  110 1   
   104  103  104 1   
   105  103  106 1   
   106  103  111 1   
   107  104  105 2   
   108  104  114 1   
   109  106  107 1   
   110  106  112 1   
   111  106  113 1   
   112  107  108 1   
   113  107  109 1   
   114  114  115 1   
   115  114  125 1   
   116  115  116 1   
   117  115  118 1   
   118  115  126 1   
   119  116  117 2   
   120  116  134 1   
   121  118  119 1   
   122  118  127 1   
   123  118  128 1   
   124  119  120 ar  
   125  119  121 ar  
   126  120  122 ar  
   127  120  129 1   
   128  121  123 ar  
   129  121  130 1   
   130  122  124 ar  
   131  122  131 1   
   132  123  124 ar  
   133  123  132 1   
   134  124  133 1   
   135  134  135 1   
   136  134  140 1   
   137  135  136 1   
   138  135  138 1   
   139  135  141 1   
   140  136  137 2   
   141  136  148 1   
   142  138  139 1   
   143  138  142 1   
   144  138  143 1   
   145  139  140 1   
   146  139  144 1   
   147  139  145 1   
   148  140  146 1   
   149  140  147 1   
   150  148  149 1   
   151  148  157 1   
   152  149  150 1   
   153  149  152 1   
   154  149  158 1   
   155  150  151 2   
   156  150  163 1   
   157  152  153 1   
   158  152  159 1   
   159  152  160 1   
   160  153  154 1   
   161  153  161 1   
   162  153  162 1   
   163  154  155 1   
   164  154  156 1   
   165  163  164 1   
   166  163  168 1   
   167  164  165 1   
   168  164  166 1   
   169  164  167 1   
   170  170  171 1   
   171  170  172 1   
   172  173  174 1   
   173  173  175 1   
   174  176  177 1   
   175  176  178 1   
   176  179  180 1   
   177  179  181 1   
   178  182  183 1   
   179  182  184 1   
@<TRIPOS>SUBSTRUCTURE
     1 MOL         1 TEMP              0 ****  ****    0 ROOT
