@<TRIPOS>MOLECULE
MOL
  188   182     1     0     0
SMALL
resp


@<TRIPOS>ATOM
      1 C1         -6.7110    0.3570    3.9480 c3        1 MOL     -0.291432
      2 C2         -6.8520   -0.3710    2.5780 c         1 MOL      0.673507
      3 O1         -6.1870    0.1120    1.6330 o         1 MOL     -0.607087
      4 H1         -5.7160    0.1760    4.3540 hc        1 MOL      0.076007
      5 H2         -6.8560    1.4280    3.8080 hc        1 MOL      0.076007
      6 H3         -7.4600   -0.0250    4.6420 hc        1 MOL      0.076007
      7 N1         -7.6240   -1.4610    2.4030 n         1 MOL     -0.642901
      8 C3         -7.9460   -2.1650    1.1220 c3        1 MOL      0.279520
      9 C4         -8.0080   -1.2140   -0.1640 c         1 MOL      0.468268
     10 O2         -7.6020   -1.6510   -1.2560 o         1 MOL     -0.465914
     11 C5         -6.8400   -3.1970    1.0120 c3        1 MOL     -0.442079
     12 C6         -7.2550   -4.2520    0.0200 c         1 MOL      0.744933
     13 O3         -6.5080   -4.5700   -0.9800 o         1 MOL     -0.645915
     14 O4         -8.2650   -4.9320    0.1940 o         1 MOL     -0.645915
     15 H4         -8.1080   -1.8150    3.2210 hn        1 MOL      0.347496
     16 H5         -8.8930   -2.7080    1.1680 h1        1 MOL      0.009745
     17 H6         -6.7640   -3.7710    1.9370 hc        1 MOL      0.152566
     18 H7         -5.9310   -2.6590    0.7540 hc        1 MOL      0.152566
     19 N2         -8.5280   -0.0130   -0.0290 n         1 MOL     -0.445524
     20 C7         -8.6680    0.9060   -1.1630 c3        1 MOL      0.010242
     21 C8         -7.3860    1.4560   -1.7420 c         1 MOL      0.454045
     22 O5         -7.3720    2.2210   -2.7360 o         1 MOL     -0.568187
     23 C9         -9.7170    1.8980   -0.8010 c3        1 MOL      0.070372
     24 C10        -9.2500    2.7830    0.3710 c3        1 MOL     -0.049273
     25 C11       -10.4720    3.5210    0.9910 c3        1 MOL      0.053120
     26 C12       -10.0140    4.5660    1.9810 c3        1 MOL      0.027859
     27 N3        -11.0150    5.6210    2.1820 n4        1 MOL     -0.179543
     28 H8         -8.6690    0.2030    0.9470 hn        1 MOL      0.206237
     29 H9         -9.1110    0.4280   -2.0320 h1        1 MOL      0.138719
     30 H10       -10.6660    1.4380   -0.5140 hc        1 MOL     -0.000289
     31 H11        -9.9720    2.5600   -1.6190 hc        1 MOL     -0.000289
     32 H12        -8.5090    3.4120   -0.1200 hc        1 MOL      0.038491
     33 H13        -8.7210    2.3000    1.2010 hc        1 MOL      0.038491
     34 H14       -11.2410    2.8270    1.3380 hc        1 MOL      0.011049
     35 H15       -10.8740    4.0480    0.1170 hc        1 MOL      0.011049
     36 H16        -9.0730    4.9930    1.6440 hx        1 MOL      0.054673
     37 H17        -9.7490    3.9870    2.8600 hx        1 MOL      0.054673
     38 H18       -10.6390    6.4440    2.6420 hn        1 MOL      0.188881
     39 H19       -11.1620    6.0630    1.2870 hn        1 MOL      0.188881
     40 H20       -11.8960    5.3020    2.5480 hn        1 MOL      0.188881
     41 N4         -6.2730    1.1360   -1.1280 n         1 MOL     -0.084770
     42 C13        -5.0050    1.6920   -1.4510 c3        1 MOL     -0.404535
     43 C14        -4.4170    1.1420   -2.7720 c         1 MOL      0.631560
     44 O6         -4.6500   -0.0130   -3.1090 o         1 MOL     -0.441344
     45 C15        -4.1120    1.2290   -0.1750 c3        1 MOL     -0.143384
     46 C16        -2.6070    1.4130   -0.4080 c         1 MOL      0.766624
     47 O7         -1.9630    2.3230    0.2060 o         1 MOL     -0.762464
     48 O8         -1.9210    0.7580   -1.2210 o         1 MOL     -0.762464
     49 H21        -6.3830    0.5340   -0.3240 hn        1 MOL      0.176076
     50 H22        -5.1100    2.7740   -1.3190 h1        1 MOL      0.131271
     51 H23        -4.2350    0.1820    0.0760 hc        1 MOL      0.084672
     52 H24        -4.4420    1.8140    0.6920 hc        1 MOL      0.084672
     53 N5         -3.7340    2.0090   -3.4930 n         1 MOL     -0.317191
     54 C17        -3.1870    1.7410   -4.8330 c3        1 MOL     -0.157296
     55 C18        -2.2250    0.5830   -4.9810 c         1 MOL      0.487316
     56 O9         -2.0960    0.0710   -6.0990 o         1 MOL     -0.541050
     57 H25        -3.7150    2.9630   -3.1590 hn        1 MOL      0.277578
     58 H26        -2.7490    2.6450   -5.2680 h1        1 MOL      0.107803
     59 H27        -3.9910    1.4410   -5.5040 h1        1 MOL      0.107803
     60 N6         -1.6130   -0.0270   -3.9420 n         1 MOL     -0.164515
     61 C19        -0.9790   -1.3750   -3.8870 c3        1 MOL      0.018246
     62 C20        -1.3310   -2.2790   -2.6110 c         1 MOL      0.425815
     63 O10        -0.5380   -2.9690   -2.0040 o         1 MOL     -0.488175
     64 C21         0.4740   -1.4500   -4.2270 c3        1 MOL     -0.284525
     65 C22         1.4010   -0.7500   -3.2040 c         1 MOL      0.631726
     66 N7          2.7050   -0.9910   -3.2520 n         1 MOL     -0.745531
     67 O11         1.0370    0.0810   -2.3970 o         1 MOL     -0.545706
     68 H28        -1.6810    0.4340   -3.0580 hn        1 MOL      0.029805
     69 H29        -1.3930   -1.9140   -4.7350 h1        1 MOL      0.103849
     70 H30         0.6830   -1.1000   -5.2370 hc        1 MOL      0.119539
     71 H31         0.7480   -2.5050   -4.2260 hc        1 MOL      0.119539
     72 H32         3.0690   -1.6870   -3.8860 hn        1 MOL      0.344877
     73 H33         3.3250   -0.4660   -2.6600 hn        1 MOL      0.344877
     74 N8         -2.5430   -2.1030   -2.2060 n         1 MOL     -0.265874
     75 C23        -3.2850   -2.9710   -1.2400 c3        1 MOL     -0.092355
     76 C24        -2.8630   -2.8220    0.2270 c         1 MOL      0.393788
     77 O12        -3.3510   -3.5590    1.0970 o         1 MOL     -0.514677
     78 H34        -3.0840   -1.3440   -2.5800 hn        1 MOL      0.197152
     79 H35        -3.2580   -4.0020   -1.5810 h1        1 MOL      0.140510
     80 H36        -4.3320   -2.6920   -1.1580 h1        1 MOL      0.140510
     81 N9         -1.9880   -1.8910    0.5440 n         1 MOL     -0.239726
     82 C25        -1.3090   -1.7160    1.8170 c3        1 MOL     -0.282418
     83 C26         0.0810   -1.0450    1.5200 c         1 MOL      0.324454
     84 O13         0.2570   -0.2500    0.5600 o         1 MOL     -0.619852
     85 C27        -2.1100   -0.8270    2.6910 c3        1 MOL     -0.001115
     86 C28        -1.4580   -0.1990    3.8880 ca        1 MOL     -0.024774
     87 C29        -1.3780   -0.9000    5.1140 ca        1 MOL     -0.070007
     88 C30        -0.8470    1.0960    3.7450 ca        1 MOL     -0.070007
     89 C31        -0.6960   -0.3740    6.2280 ca        1 MOL     -0.326808
     90 C32        -0.1380    1.6160    4.8790 ca        1 MOL     -0.326808
     91 C33         0.0180    0.8170    6.0790 ca        1 MOL      0.351200
     92 O14         0.6680    1.2330    7.1940 oh        1 MOL     -0.459929
     93 H37        -1.5610   -1.4180   -0.2400 hn        1 MOL      0.428163
     94 H38        -1.1770   -2.7080    2.2630 h1        1 MOL      0.178261
     95 H39        -3.0110   -1.3610    2.9800 hc        1 MOL      0.082390
     96 H40        -2.3400    0.0450    2.0740 hc        1 MOL      0.082390
     97 H41        -1.8990   -1.8480    5.1050 ha        1 MOL      0.118699
     98 H42        -0.8780    1.6350    2.8060 ha        1 MOL      0.118699
     99 H43        -0.5940   -0.9170    7.1550 ha        1 MOL      0.173138
    100 H44         0.4350    2.5270    4.7830 ha        1 MOL      0.173138
    101 H45         0.8110    2.1780    7.0960 ho        1 MOL      0.353255
    102 N10         1.1830   -1.6090    2.0340 n         1 MOL     -0.046033
    103 C34         2.5810   -1.0850    1.8120 c3        1 MOL     -0.275312
    104 C35         3.2870   -1.8280    0.5900 c         1 MOL      0.476938
    105 O15         4.1580   -1.1910   -0.0400 o         1 MOL     -0.269188
    106 C36         3.3160   -1.1670    3.2140 c3        1 MOL      0.045778
    107 C37         2.4030   -0.7420    4.4180 c3        1 MOL      0.191195
    108 C38         4.5660   -0.3270    3.1440 c3        1 MOL     -0.074361
    109 C39         3.0650   -0.9180    5.7540 c3        1 MOL     -0.235725
    110 H46         1.0870   -2.4780    2.5450 hn        1 MOL      0.180797
    111 H47         2.5480   -0.0220    1.5840 h1        1 MOL      0.116828
    112 H48         3.6700   -2.1720    3.4230 hc        1 MOL     -0.008067
    113 H49         1.4600   -1.2940    4.4670 hc        1 MOL     -0.044871
    114 H50         2.1210    0.3050    4.3440 hc        1 MOL     -0.044871
    115 H51         4.1610    0.6860    3.2530 hc        1 MOL      0.021552
    116 H52         5.3010   -0.5750    3.8970 hc        1 MOL      0.021552
    117 H53         4.9420   -0.3990    2.1260 hc        1 MOL      0.021552
    118 H54         2.2740   -0.8190    6.5150 hc        1 MOL      0.061497
    119 H55         3.4620   -1.9370    5.8050 hc        1 MOL      0.061497
    120 H56         3.8120   -0.1410    5.9190 hc        1 MOL      0.061497
    121 N11         2.8960   -2.9930    0.2100 n         1 MOL     -0.282494
    122 C40         3.2770   -3.6750   -1.0010 c3        1 MOL     -0.093684
    123 C41         4.8010   -3.9840   -1.1380 c         1 MOL      0.268219
    124 O16         5.3470   -3.8960   -2.2270 o         1 MOL     -0.465380
    125 C42         2.5650   -5.0830   -0.9220 c3        1 MOL      0.410567
    126 O17         1.1680   -4.8900   -0.9800 oh        1 MOL     -0.645723
    127 H57         2.1060   -3.3800    0.7000 hn        1 MOL      0.241362
    128 H58         2.9820   -3.1670   -1.9210 h1        1 MOL      0.092800
    129 H59         2.9160   -5.5670   -0.0120 h1        1 MOL     -0.002219
    130 H60         2.7730   -5.7230   -1.7740 h1        1 MOL     -0.002219
    131 H61         0.8340   -4.2240   -1.5840 ho        1 MOL      0.372722
    132 N12         5.5270   -4.0360   -0.0490 n         1 MOL     -0.355101
    133 C43         6.9990   -3.9690    0.0440 c3        1 MOL      0.352017
    134 C44         7.6600   -2.6340   -0.4940 c         1 MOL      0.391293
    135 O18         8.8410   -2.6400   -0.8140 o         1 MOL     -0.540116
    136 C45         7.6080   -5.3330   -0.3790 c3        1 MOL     -0.396919
    137 H62         5.0770   -3.9250    0.8430 hn        1 MOL      0.225405
    138 H63         7.1690   -3.8940    1.1250 h1        1 MOL      0.003477
    139 H64         7.4260   -6.0300    0.4380 hc        1 MOL      0.111660
    140 H65         7.0130   -5.7570   -1.1890 hc        1 MOL      0.111660
    141 H66         8.6670   -5.2110   -0.5890 hc        1 MOL      0.111660
    142 N13         6.8890   -1.5900   -0.7310 n         1 MOL     -0.303451
    143 C46         7.3460   -0.4170   -1.4360 c3        1 MOL      0.383031
    144 C47         7.5230    0.7780   -0.4390 c         1 MOL      0.383095
    145 O19         6.7720    0.9330    0.5460 o         1 MOL     -0.552624
    146 C48         6.2820   -0.1850   -2.5090 c3        1 MOL     -0.313643
    147 H67         5.9980   -1.5840   -0.2430 hn        1 MOL      0.070698
    148 H68         8.3000   -0.5980   -1.9350 h1        1 MOL      0.031812
    149 H69         6.0600   -1.0800   -3.0760 hc        1 MOL      0.075389
    150 H70         5.3260    0.2260   -2.1910 hc        1 MOL      0.075389
    151 H71         6.8180    0.5220   -3.1520 hc        1 MOL      0.075389
    152 N14         8.5540    1.5610   -0.6530 n         1 MOL     -0.419349
    153 C49         8.8830    2.6300    0.2720 c3        1 MOL     -0.062172
    154 C50         8.9480    2.1460    1.7480 c         1 MOL      0.466799
    155 O20         8.6950    2.8910    2.7060 o         1 MOL     -0.526680
    156 C51         7.9880    3.8230    0.1140 c3        1 MOL      0.110208
    157 C52         7.9640    4.4780   -1.2460 c3        1 MOL     -0.051915
    158 C53         9.2650    5.0790   -1.7630 c         1 MOL      0.650717
    159 O21        10.2020    4.3620   -2.2500 o         1 MOL     -0.661881
    160 O22         9.3890    6.3330   -1.6290 o         1 MOL     -0.661881
    161 H72         9.2630    1.2080   -1.2840 hn        1 MOL      0.282504
    162 H73         9.9130    2.9900    0.2050 h1        1 MOL      0.105123
    163 H74         8.2460    4.5770    0.8610 hc        1 MOL      0.006895
    164 H75         6.9760    3.6010    0.4600 hc        1 MOL      0.006895
    165 H76         7.1910    5.2410   -1.3110 hc        1 MOL     -0.049370
    166 H77         7.6900    3.6750   -1.9340 hc        1 MOL     -0.049370
    167 N15         9.2500    0.8450    1.8990 n         1 MOL     -0.224847
    168 C54         9.5300    0.3650    3.2440 c3        1 MOL     -0.076992
    169 H78         9.1520    1.0820    3.9720 h1        1 MOL      0.058812
    170 H79         9.0420   -0.5980    3.3950 h1        1 MOL      0.058812
    171 H80        10.6070    0.2500    3.3720 h1        1 MOL      0.058812
    172 H81         9.4110    0.2720    1.0810 hn        1 MOL      0.205641
    173 Ca1         0.3890    2.0690   -0.7570 Ca        1 MOL      1.807281
    174 O23         3.1400    1.3740   -0.4500 oh        1 MOL     -0.836229
    175 H82         3.7800    0.6760   -0.5110 ho        1 MOL      0.413074
    176 H83         3.4500    1.9300    0.2650 ho        1 MOL      0.413074
    177 O24        -0.5840    2.6090   -3.3660 oh        1 MOL     -0.836229
    178 H84        -0.0100    2.4480   -4.1140 ho        1 MOL      0.413074
    179 H85        -1.1150    3.3560   -3.6370 ho        1 MOL      0.413074
    180 O25        -0.1560    4.6710   -0.9600 oh        1 MOL     -0.836229
    181 H86         0.5790    5.1980   -1.2810 ho        1 MOL      0.413074
    182 H87        -0.8910    5.2730   -0.9270 ho        1 MOL      0.413074
    183 O26         1.8570    3.2850    1.3230 oh        1 MOL     -0.836229
    184 H88         1.5570    3.9480    1.9380 ho        1 MOL      0.413074
    185 H89         2.8020    3.2380    1.4560 ho        1 MOL      0.413074
    186 O27         2.3280    3.4010   -2.1360 oh        1 MOL     -0.836229
    187 H90         3.2750    3.3490   -2.3020 ho        1 MOL      0.413074
    188 H91         2.0470    4.1710   -2.6300 ho        1 MOL      0.413074
@<TRIPOS>BOND
     1    1    2 1   
     2    1    4 1   
     3    1    5 1   
     4    1    6 1   
     5    2    3 2   
     6    2    7 1   
     7    7    8 1   
     8    7   15 1   
     9    8    9 1   
    10    8   11 1   
    11    8   16 1   
    12    9   10 2   
    13    9   19 1   
    14   11   12 1   
    15   11   17 1   
    16   11   18 1   
    17   12   13 1   
    18   12   14 1   
    19   19   20 1   
    20   19   28 1   
    21   20   21 1   
    22   20   23 1   
    23   20   29 1   
    24   21   22 2   
    25   21   41 1   
    26   23   24 1   
    27   23   30 1   
    28   23   31 1   
    29   24   25 1   
    30   24   32 1   
    31   24   33 1   
    32   25   26 1   
    33   25   34 1   
    34   25   35 1   
    35   26   27 1   
    36   26   36 1   
    37   26   37 1   
    38   27   38 1   
    39   27   39 1   
    40   27   40 1   
    41   41   42 1   
    42   41   49 1   
    43   42   43 1   
    44   42   45 1   
    45   42   50 1   
    46   43   44 2   
    47   43   53 1   
    48   45   46 1   
    49   45   51 1   
    50   45   52 1   
    51   46   47 1   
    52   46   48 1   
    53   53   54 1   
    54   53   57 1   
    55   54   55 1   
    56   54   58 1   
    57   54   59 1   
    58   55   56 2   
    59   55   60 1   
    60   60   61 1   
    61   60   68 1   
    62   61   62 1   
    63   61   64 1   
    64   61   69 1   
    65   62   63 2   
    66   62   74 1   
    67   64   65 1   
    68   64   70 1   
    69   64   71 1   
    70   65   66 1   
    71   65   67 2   
    72   66   72 1   
    73   66   73 1   
    74   74   75 1   
    75   74   78 1   
    76   75   76 1   
    77   75   79 1   
    78   75   80 1   
    79   76   77 2   
    80   76   81 1   
    81   81   82 1   
    82   81   93 1   
    83   82   83 1   
    84   82   85 1   
    85   82   94 1   
    86   83   84 2   
    87   83  102 1   
    88   85   86 1   
    89   85   95 1   
    90   85   96 1   
    91   86   87 ar  
    92   86   88 ar  
    93   87   89 ar  
    94   87   97 1   
    95   88   90 ar  
    96   88   98 1   
    97   89   91 ar  
    98   89   99 1   
    99   90   91 ar  
   100   90  100 1   
   101   91   92 1   
   102   92  101 1   
   103  102  103 1   
   104  102  110 1   
   105  103  104 1   
   106  103  106 1   
   107  103  111 1   
   108  104  105 2   
   109  104  121 1   
   110  106  107 1   
   111  106  108 1   
   112  106  112 1   
   113  107  109 1   
   114  107  113 1   
   115  107  114 1   
   116  108  115 1   
   117  108  116 1   
   118  108  117 1   
   119  109  118 1   
   120  109  119 1   
   121  109  120 1   
   122  121  122 1   
   123  121  127 1   
   124  122  123 1   
   125  122  125 1   
   126  122  128 1   
   127  123  124 2   
   128  123  132 1   
   129  125  126 1   
   130  125  129 1   
   131  125  130 1   
   132  126  131 1   
   133  132  133 1   
   134  132  137 1   
   135  133  134 1   
   136  133  136 1   
   137  133  138 1   
   138  134  135 2   
   139  134  142 1   
   140  136  139 1   
   141  136  140 1   
   142  136  141 1   
   143  142  143 1   
   144  142  147 1   
   145  143  144 1   
   146  143  146 1   
   147  143  148 1   
   148  144  145 2   
   149  144  152 1   
   150  146  149 1   
   151  146  150 1   
   152  146  151 1   
   153  152  153 1   
   154  152  161 1   
   155  153  154 1   
   156  153  156 1   
   157  153  162 1   
   158  154  155 2   
   159  154  167 1   
   160  156  157 1   
   161  156  163 1   
   162  156  164 1   
   163  157  158 1   
   164  157  165 1   
   165  157  166 1   
   166  158  159 1   
   167  158  160 1   
   168  167  168 1   
   169  167  172 1   
   170  168  169 1   
   171  168  170 1   
   172  168  171 1   
   173  174  175 1   
   174  174  176 1   
   175  177  178 1   
   176  177  179 1   
   177  180  181 1   
   178  180  182 1   
   179  183  184 1   
   180  183  185 1   
   181  186  187 1   
   182  186  188 1   
@<TRIPOS>SUBSTRUCTURE
     1 MOL         1 TEMP              0 ****  ****    0 ROOT
