@<TRIPOS>MOLECULE
MOL
  198   191     1     0     0
SMALL
resp


@<TRIPOS>ATOM
      1 C1          3.3550    6.7560    4.1310 c3        1 MOL     -0.394769
      2 C2          2.5560    5.9470    3.1010 c         1 MOL      0.605557
      3 O1          2.2550    4.8050    3.4790 o         1 MOL     -0.551601
      4 H1          2.6910    7.0810    4.9320 hc        1 MOL      0.105508
      5 H2          4.1480    6.1350    4.5460 hc        1 MOL      0.105508
      6 H3          3.7920    7.6290    3.6470 hc        1 MOL      0.105508
      7 N1          2.4170    6.3380    1.8030 n         1 MOL     -0.463058
      8 C3          1.7770    5.5210    0.7790 c3        1 MOL     -0.099219
      9 C4          2.5990    4.2390    0.4270 c         1 MOL      0.433474
     10 O2          2.1090    3.4680   -0.4120 o         1 MOL     -0.516597
     11 C5          1.3410    6.4000   -0.4110 c3        1 MOL     -0.105551
     12 C6          2.5280    7.1650   -1.0470 c         1 MOL      0.693933
     13 O3          3.0670    6.7200   -2.0950 o         1 MOL     -0.701732
     14 O4          3.0030    8.1280   -0.4190 o         1 MOL     -0.701732
     15 H4          2.6420    7.2440    1.4320 hn        1 MOL      0.290664
     16 H5          0.8590    5.1730    1.2380 h1        1 MOL      0.140940
     17 H6          0.6050    7.1240   -0.0660 hc        1 MOL      0.049972
     18 H7          0.7830    5.8370   -1.1580 hc        1 MOL      0.049972
     19 N2          3.8110    4.0360    0.9140 n         1 MOL     -0.216216
     20 C7          4.6780    2.9280    0.4440 c3        1 MOL     -0.051483
     21 C8          4.4740    1.7290    1.3700 c         1 MOL      0.477687
     22 O5          4.6170    1.8560    2.5830 o         1 MOL     -0.552753
     23 C9          6.1720    3.4150    0.2370 c3        1 MOL      0.329089
     24 C10         6.6260    4.2790   -0.8800 c3        1 MOL     -0.390901
     25 C11         5.7410    5.5240   -1.2120 c3        1 MOL      0.068179
     26 C12         6.3920    6.5090   -2.1790 c3        1 MOL     -0.085251
     27 N3          5.5800    7.7490   -2.4140 n4        1 MOL     -0.184244
     28 H8          4.2050    4.7050    1.5560 hn        1 MOL      0.242487
     29 H9          4.2990    2.5760   -0.5190 h1        1 MOL      0.125182
     30 H10         6.7390    2.4900    0.2170 hc        1 MOL     -0.070107
     31 H11         6.3750    3.9020    1.1890 hc        1 MOL     -0.070107
     32 H12         6.5260    3.5910   -1.7180 hc        1 MOL      0.101554
     33 H13         7.6860    4.5050   -0.7080 hc        1 MOL      0.101554
     34 H14         5.5210    6.0510   -0.2830 hc        1 MOL      0.051177
     35 H15         4.8210    5.1450   -1.6650 hc        1 MOL      0.051177
     36 H16         6.4010    6.0440   -3.1660 hx        1 MOL      0.091306
     37 H17         7.3960    6.8320   -1.9150 hx        1 MOL      0.091306
     38 H18         5.3150    8.1600   -1.5300 hn        1 MOL      0.256474
     39 H19         6.0060    8.3540   -3.1060 hn        1 MOL      0.256474
     40 H20         4.6530    7.4190   -2.6120 hn        1 MOL      0.256474
     41 N4          4.2250    0.4840    0.9820 n         1 MOL     -0.278570
     42 C13         4.0110   -0.1020   -0.3150 c3        1 MOL      0.001633
     43 C14         5.1520    0.2390   -1.4150 c         1 MOL      0.473560
     44 O6          4.8160    0.8180   -2.4610 o         1 MOL     -0.541779
     45 C15         2.5890    0.1710   -0.8210 c3        1 MOL     -0.276389
     46 C16         1.5390   -0.4440    0.1630 c         1 MOL      0.563177
     47 O7          0.5100    0.1090    0.5500 o         1 MOL     -0.629415
     48 O8          1.6830   -1.5860    0.6000 o         1 MOL     -0.629415
     49 H21         3.8720   -0.0620    1.7510 hn        1 MOL      0.280178
     50 H22         4.0960   -1.1840   -0.1630 h1        1 MOL      0.092978
     51 H23         2.3750   -0.4270   -1.7110 hc        1 MOL      0.093277
     52 H24         2.3690    1.2160   -1.0160 hc        1 MOL      0.093277
     53 N5          6.4690    0.0780   -1.2600 n         1 MOL     -0.427699
     54 C17         7.1280   -0.5130   -0.0880 c3        1 MOL      0.082999
     55 C18         7.8610   -1.7960   -0.4470 c         1 MOL      0.378266
     56 O9          8.4380   -1.9740   -1.4860 o         1 MOL     -0.526444
     57 H25         7.1380    0.3130   -1.9790 hn        1 MOL      0.310854
     58 H26         6.4130   -0.5300    0.7320 h1        1 MOL      0.039279
     59 H27         7.8150    0.1480    0.4280 h1        1 MOL      0.039279
     60 N6          8.0310   -2.6900    0.4660 n         1 MOL     -0.263539
     61 C19         7.4640   -2.8050    1.8510 c3        1 MOL     -0.048934
     62 C20         5.9250   -2.9720    1.8020 c         1 MOL      0.606627
     63 O10         5.3160   -2.5120    2.7940 o         1 MOL     -0.615660
     64 C21         8.1180   -3.9780    2.6150 c3        1 MOL     -0.202026
     65 C22         9.6420   -3.9340    2.6040 c         1 MOL      0.701014
     66 O11        10.0950   -3.1660    3.4870 o         1 MOL     -0.651115
     67 O12        10.2790   -4.6100    1.7920 o         1 MOL     -0.651115
     68 H28         8.6660   -3.4110    0.1550 hn        1 MOL      0.260448
     69 H29         7.6950   -1.8980    2.4150 h1        1 MOL      0.109647
     70 H30         7.8100   -4.9280    2.1710 hc        1 MOL      0.045618
     71 H31         7.7950   -3.9030    3.6620 hc        1 MOL      0.045618
     72 N7          5.3820   -3.5590    0.7340 n         1 MOL     -0.514562
     73 C23         3.9540   -3.8910    0.5130 c3        1 MOL      0.312287
     74 C24         3.5600   -3.7600   -0.9670 c         1 MOL      0.618384
     75 O13         4.2600   -3.2910   -1.8390 o         1 MOL     -0.522287
     76 H32         6.0180   -3.7470   -0.0210 hn        1 MOL      0.258320
     77 H33         3.2550   -3.2750    1.0820 h1        1 MOL     -0.075505
     78 H34         3.8160   -4.9460    0.7370 h1        1 MOL     -0.075505
     79 N8          2.3870   -4.2210   -1.3150 n         1 MOL     -0.678976
     80 C25         1.6930   -4.0730   -2.6510 c3        1 MOL      0.152567
     81 C26         0.7580   -2.8870   -2.6270 c         1 MOL      0.491662
     82 O14        -0.0150   -2.7320   -1.6640 o         1 MOL     -0.451522
     83 C27         0.8960   -5.3820   -3.1260 c3        1 MOL      0.319696
     84 C28         0.7940   -5.3640   -4.6260 c3        1 MOL     -0.267634
     85 O15        -0.5120   -5.3730   -2.7450 oh        1 MOL     -0.579250
     86 H35         1.7910   -4.3470   -0.5190 hn        1 MOL      0.232410
     87 H36         2.4310   -3.8920   -3.4290 h1        1 MOL      0.083397
     88 H37         1.4310   -6.3040   -2.9050 h1        1 MOL      0.026043
     89 H38        -0.6990   -6.1960   -2.2870 ho        1 MOL      0.366199
     90 H39         0.5180   -4.4110   -5.0860 hc        1 MOL      0.066719
     91 H40         1.7110   -5.7060   -5.1080 hc        1 MOL      0.066719
     92 H41        -0.0060   -6.0790   -4.7970 hc        1 MOL      0.066719
     93 N9          0.6440   -2.1330   -3.7940 n         1 MOL     -0.417420
     94 C29        -0.2480   -1.0000   -3.9080 c3        1 MOL     -0.015797
     95 C30        -1.6950   -1.4810   -4.1720 c         1 MOL      0.563633
     96 O16        -2.3150   -1.1790   -5.2510 o         1 MOL     -0.512881
     97 C31         0.3650    0.0880   -4.8730 c3        1 MOL      0.200637
     98 C32        -0.3600    1.4540   -4.7420 c3        1 MOL      0.006135
     99 C33         0.2970   -0.3870   -6.3450 c3        1 MOL     -0.310096
    100 C34         0.1710    2.1190   -3.4590 c3        1 MOL     -0.350689
    101 H42         1.2190   -2.4660   -4.5570 hn        1 MOL      0.268688
    102 H43        -0.2630   -0.4770   -2.9500 h1        1 MOL      0.052870
    103 H44         1.4330    0.2960   -4.7420 hc        1 MOL      0.012938
    104 H45        -1.4170    1.2490   -4.5840 hc        1 MOL      0.019310
    105 H46        -0.2110    2.0650   -5.6230 hc        1 MOL      0.019310
    106 H47         0.5130   -1.4480   -6.3530 hc        1 MOL      0.064207
    107 H48        -0.7620   -0.3120   -6.6150 hc        1 MOL      0.064207
    108 H49         0.8560    0.2080   -7.0690 hc        1 MOL      0.064207
    109 H50        -0.3090    3.1010   -3.4900 hc        1 MOL      0.111382
    110 H51         0.0210    1.5080   -2.5780 hc        1 MOL      0.111382
    111 H52         1.2450    2.2690   -3.6070 hc        1 MOL      0.111382
    112 N10        -2.2790   -2.1820   -3.1760 n         1 MOL     -0.527094
    113 C35        -3.6810   -2.6580   -3.2300 c3        1 MOL      0.369164
    114 C36        -4.7280   -1.5260   -3.0300 c         1 MOL      0.283783
    115 O17        -5.7390   -1.4290   -3.7250 o         1 MOL     -0.481095
    116 C37        -4.0300   -3.9210   -2.3800 c3        1 MOL      0.121405
    117 C38        -3.5310   -3.7880   -0.9680 c3        1 MOL      0.078015
    118 O18        -3.3720   -5.0670   -2.8260 oh        1 MOL     -0.597799
    119 H53        -1.6610   -2.4030   -2.4120 hn        1 MOL      0.316029
    120 H54        -3.9180   -2.9150   -4.2620 h1        1 MOL      0.031848
    121 H55        -5.1210   -3.9770   -2.3130 h1        1 MOL      0.040940
    122 H56        -3.1050   -5.6060   -2.0750 ho        1 MOL      0.376453
    123 H57        -2.4520   -3.6820   -0.9360 hc        1 MOL     -0.034655
    124 H58        -4.0880   -2.9840   -0.4760 hc        1 MOL     -0.034655
    125 H59        -3.7970   -4.6220   -0.3150 hc        1 MOL     -0.034655
    126 N11        -4.4220   -0.5780   -2.1090 n         1 MOL     -0.424032
    127 C39        -5.2100    0.4640   -1.5770 c3        1 MOL      0.205692
    128 C40        -6.4960    0.0090   -0.8600 c         1 MOL      0.449369
    129 O19        -6.8940   -1.1560   -1.0410 o         1 MOL     -0.459328
    130 C41        -5.5010    1.4930   -2.7230 c3        1 MOL      0.212598
    131 C42        -4.1470    2.0450   -3.1940 c3        1 MOL      0.051675
    132 O20        -6.2820    2.5850   -2.3260 oh        1 MOL     -0.675441
    133 H60        -3.6030   -0.7810   -1.5490 hn        1 MOL      0.250182
    134 H61        -4.5800    0.9380   -0.8250 h1        1 MOL      0.031517
    135 H62        -6.0220    0.9630   -3.5210 h1        1 MOL      0.058259
    136 H63        -6.6180    2.9560   -3.1420 ho        1 MOL      0.401787
    137 H64        -4.2650    2.7190   -4.0340 hc        1 MOL     -0.016088
    138 H65        -3.5330    2.5220   -2.4340 hc        1 MOL     -0.016088
    139 H66        -3.6230    1.2130   -3.6580 hc        1 MOL     -0.016088
    140 N12        -7.1650    0.9240   -0.0900 n         1 MOL     -0.405986
    141 C43        -8.4130    0.7570    0.6240 c3        1 MOL     -0.055686
    142 C44        -8.2030    0.0590    1.9310 c         1 MOL      0.584484
    143 O21        -9.1380   -0.6890    2.2930 o         1 MOL     -0.550730
    144 C45        -9.0090    2.1420    0.8850 c3        1 MOL     -0.002107
    145 C46        -9.2410    3.0000   -0.3860 c3        1 MOL     -0.101655
    146 C47       -10.1160    2.3440   -1.4740 c3        1 MOL     -0.243009
    147 C48       -11.5780    2.0830   -1.2390 c3        1 MOL      0.153120
    148 N13       -12.4480    3.1800   -0.8900 n4        1 MOL     -0.359862
    149 H67        -6.6540    1.7980   -0.1330 hn        1 MOL      0.301007
    150 H68        -9.1280    0.2000    0.0110 h1        1 MOL      0.117547
    151 H69        -8.3790    2.6730    1.5960 hc        1 MOL      0.032359
    152 H70        -9.9430    2.0270    1.4350 hc        1 MOL      0.032359
    153 H71        -8.2670    3.3330   -0.7230 hc        1 MOL      0.056601
    154 H72        -9.7550    3.9420   -0.1860 hc        1 MOL      0.056601
    155 H73        -9.6850    1.4010   -1.8160 hc        1 MOL      0.103081
    156 H74       -10.0770    3.0400   -2.3140 hc        1 MOL      0.103081
    157 H75       -11.6220    1.4110   -0.3810 hx        1 MOL      0.057999
    158 H76       -11.9510    1.4530   -2.0470 hx        1 MOL      0.057999
    159 H77       -12.2540    3.5370    0.0290 hn        1 MOL      0.289590
    160 H78       -12.4170    3.9140   -1.5800 hn        1 MOL      0.289590
    161 H79       -13.3360    2.6910   -0.8460 hn        1 MOL      0.289590
    162 N14        -7.0110    0.0180    2.5340 n         1 MOL     -0.402213
    163 C49        -6.5790   -0.9160    3.6100 c3        1 MOL     -0.100640
    164 C50        -7.3240   -0.5790    4.8980 c         1 MOL      0.445328
    165 O22        -7.8440    0.5040    5.1610 o         1 MOL     -0.509096
    166 C51        -5.0540   -0.8310    3.7140 c3        1 MOL     -0.031919
    167 C52        -4.4720   -1.4290    2.3900 c3        1 MOL     -0.066951
    168 C53        -2.9810   -1.4200    2.5690 c         1 MOL      0.584537
    169 O23        -2.3280   -2.1710    3.3440 o         1 MOL     -0.729471
    170 O24        -2.2670   -0.5930    1.9870 o         1 MOL     -0.729471
    171 H80        -6.2860    0.6180    2.1570 hn        1 MOL      0.250045
    172 H81        -6.8770   -1.9260    3.3520 h1        1 MOL      0.108530
    173 H82        -4.6600   -1.3130    4.6120 hc        1 MOL      0.065754
    174 H83        -4.7480    0.2110    3.7440 hc        1 MOL      0.065754
    175 H84        -4.7750   -0.8350    1.5380 hc        1 MOL      0.047596
    176 H85        -4.8160   -2.4700    2.3470 hc        1 MOL      0.047596
    177 N15        -7.5190   -1.5420    5.8130 n         1 MOL     -0.264305
    178 C54        -8.1510   -1.4560    7.0980 c3        1 MOL     -0.140279
    179 H86        -8.6360   -0.4860    7.2000 h1        1 MOL      0.087127
    180 H87        -8.8980   -2.2460    7.1890 h1        1 MOL      0.087127
    181 H88        -7.4010   -1.5720    7.8800 h1        1 MOL      0.087127
    182 H89        -7.0240   -2.3860    5.5780 hn        1 MOL      0.224669
    183 Ca1         0.1070   -1.5170    2.6560 Ca        1 MOL      1.746930
    184 O25         0.4050    1.0700    3.4290 oh        1 MOL     -0.837521
    185 H90         1.1590    1.3730    3.9200 ho        1 MOL      0.418541
    186 H91        -0.1830    1.8230    3.4030 ho        1 MOL      0.418541
    187 O26         0.7330   -4.2120    3.1970 oh        1 MOL     -0.837521
    188 H92         0.9530   -4.8020    2.4720 ho        1 MOL      0.418541
    189 H93         1.3280   -4.4730    3.9060 ho        1 MOL      0.418541
    190 O27        -0.8280   -3.3510    0.8730 oh        1 MOL     -0.837521
    191 H94        -0.8880   -4.3000    0.9590 ho        1 MOL      0.418541
    192 H95        -0.4310   -3.2030    0.0240 ho        1 MOL      0.418541
    193 O28         0.5030   -1.7660    5.2990 oh        1 MOL     -0.837521
    194 H96         0.2070   -2.5500    5.7580 ho        1 MOL      0.418541
    195 H97         1.1590   -1.3790    5.8700 ho        1 MOL      0.418541
    196 O29         2.8180   -1.3570    3.4780 oh        1 MOL     -0.837521
    197 H98         3.3290   -2.0530    3.0650 ho        1 MOL      0.418541
    198 H99         2.9760   -1.4630    4.4150 ho        1 MOL      0.418541
@<TRIPOS>BOND
     1    1    2 1   
     2    1    4 1   
     3    1    5 1   
     4    1    6 1   
     5    2    3 2   
     6    2    7 1   
     7    7    8 1   
     8    7   15 1   
     9    8    9 1   
    10    8   11 1   
    11    8   16 1   
    12    9   10 2   
    13    9   19 1   
    14   11   12 1   
    15   11   17 1   
    16   11   18 1   
    17   12   13 1   
    18   12   14 1   
    19   19   20 1   
    20   19   28 1   
    21   20   21 1   
    22   20   23 1   
    23   20   29 1   
    24   21   22 2   
    25   21   41 1   
    26   23   24 1   
    27   23   30 1   
    28   23   31 1   
    29   24   25 1   
    30   24   32 1   
    31   24   33 1   
    32   25   26 1   
    33   25   34 1   
    34   25   35 1   
    35   26   27 1   
    36   26   36 1   
    37   26   37 1   
    38   27   38 1   
    39   27   39 1   
    40   27   40 1   
    41   41   42 1   
    42   41   49 1   
    43   42   43 1   
    44   42   45 1   
    45   42   50 1   
    46   43   44 2   
    47   43   53 1   
    48   45   46 1   
    49   45   51 1   
    50   45   52 1   
    51   46   47 1   
    52   46   48 1   
    53   53   54 1   
    54   53   57 1   
    55   54   55 1   
    56   54   58 1   
    57   54   59 1   
    58   55   56 2   
    59   55   60 1   
    60   60   61 1   
    61   60   68 1   
    62   61   62 1   
    63   61   64 1   
    64   61   69 1   
    65   62   63 2   
    66   62   72 1   
    67   64   65 1   
    68   64   70 1   
    69   64   71 1   
    70   65   66 1   
    71   65   67 1   
    72   72   73 1   
    73   72   76 1   
    74   73   74 1   
    75   73   77 1   
    76   73   78 1   
    77   74   75 2   
    78   74   79 1   
    79   79   80 1   
    80   79   86 1   
    81   80   81 1   
    82   80   83 1   
    83   80   87 1   
    84   81   82 2   
    85   81   93 1   
    86   83   84 1   
    87   83   85 1   
    88   83   88 1   
    89   84   90 1   
    90   84   91 1   
    91   84   92 1   
    92   85   89 1   
    93   93   94 1   
    94   93  101 1   
    95   94   95 1   
    96   94   97 1   
    97   94  102 1   
    98   95   96 2   
    99   95  112 1   
   100   97   98 1   
   101   97   99 1   
   102   97  103 1   
   103   98  100 1   
   104   98  104 1   
   105   98  105 1   
   106   99  106 1   
   107   99  107 1   
   108   99  108 1   
   109  100  109 1   
   110  100  110 1   
   111  100  111 1   
   112  112  113 1   
   113  112  119 1   
   114  113  114 1   
   115  113  116 1   
   116  113  120 1   
   117  114  115 2   
   118  114  126 1   
   119  116  117 1   
   120  116  118 1   
   121  116  121 1   
   122  117  123 1   
   123  117  124 1   
   124  117  125 1   
   125  118  122 1   
   126  126  127 1   
   127  126  133 1   
   128  127  128 1   
   129  127  130 1   
   130  127  134 1   
   131  128  129 2   
   132  128  140 1   
   133  130  131 1   
   134  130  132 1   
   135  130  135 1   
   136  131  137 1   
   137  131  138 1   
   138  131  139 1   
   139  132  136 1   
   140  140  141 1   
   141  140  149 1   
   142  141  142 1   
   143  141  144 1   
   144  141  150 1   
   145  142  143 2   
   146  142  162 1   
   147  144  145 1   
   148  144  151 1   
   149  144  152 1   
   150  145  146 1   
   151  145  153 1   
   152  145  154 1   
   153  146  147 1   
   154  146  155 1   
   155  146  156 1   
   156  147  148 1   
   157  147  157 1   
   158  147  158 1   
   159  148  159 1   
   160  148  160 1   
   161  148  161 1   
   162  162  163 1   
   163  162  171 1   
   164  163  164 1   
   165  163  166 1   
   166  163  172 1   
   167  164  165 2   
   168  164  177 1   
   169  166  167 1   
   170  166  173 1   
   171  166  174 1   
   172  167  168 1   
   173  167  175 1   
   174  167  176 1   
   175  168  169 1   
   176  168  170 1   
   177  177  178 1   
   178  177  182 1   
   179  178  179 1   
   180  178  180 1   
   181  178  181 1   
   182  184  185 1   
   183  184  186 1   
   184  187  188 1   
   185  187  189 1   
   186  190  191 1   
   187  190  192 1   
   188  193  194 1   
   189  193  195 1   
   190  196  197 1   
   191  196  198 1   
@<TRIPOS>SUBSTRUCTURE
     1 MOL         1 TEMP              0 ****  ****    0 ROOT
