@<TRIPOS>MOLECULE
MOL
  192   187     1     0     0
SMALL
resp


@<TRIPOS>ATOM
      1 C1         12.6190    5.0510   -2.2930 c3        1 MOL     -0.591356
      2 C2         12.3730    3.7150   -1.5230 c         1 MOL      0.808610
      3 O1         13.2470    2.9100   -1.3230 o         1 MOL     -0.593227
      4 H1         12.8010    5.8540   -1.5790 hc        1 MOL      0.155896
      5 H2         13.4870    4.9420   -2.9430 hc        1 MOL      0.155896
      6 H3         11.7420    5.2910   -2.8950 hc        1 MOL      0.155896
      7 N1         11.1540    3.5330   -1.0570 n         1 MOL     -0.455287
      8 C3         10.8840    2.5190   -0.0420 c3        1 MOL     -0.232603
      9 C4          9.5310    1.8050   -0.3660 c         1 MOL      0.621001
     10 O2          8.4750    2.4950   -0.4590 o         1 MOL     -0.653025
     11 C5         10.8660    3.0590    1.3760 c3        1 MOL      0.185297
     12 C6         10.4140    4.5460    1.4400 c         1 MOL      0.607184
     13 O3         11.2540    5.4460    1.6210 o         1 MOL     -0.686839
     14 O4          9.1830    4.7300    1.1800 o         1 MOL     -0.686839
     15 H4         10.4430    4.1960   -1.3440 hn        1 MOL      0.216541
     16 H5         11.7180    1.8230   -0.0170 h1        1 MOL      0.122061
     17 H6         11.8840    3.0210    1.7440 hc        1 MOL     -0.013274
     18 H7         10.2400    2.4130    1.9910 hc        1 MOL     -0.013274
     19 N2          9.5470    0.5150   -0.4550 n         1 MOL     -0.432796
     20 C7          8.3470   -0.3280   -0.7230 c3        1 MOL     -0.026500
     21 C8          7.4330   -0.3500    0.5310 c         1 MOL      0.758986
     22 O5          7.8150   -0.7070    1.6390 o         1 MOL     -0.585344
     23 C9          8.8730   -1.7450   -1.0820 c3        1 MOL     -0.347069
     24 C10         7.6950   -2.7170   -1.3500 c3        1 MOL      0.103959
     25 C11         6.9590   -3.5220   -0.2100 c3        1 MOL     -0.153124
     26 C12         6.0950   -4.5970   -0.8120 c3        1 MOL      0.137485
     27 N3          5.2750   -5.3150    0.2210 n4        1 MOL     -0.322850
     28 H8         10.3780    0.0120   -0.1860 hn        1 MOL      0.295778
     29 H9          7.7990    0.0890   -1.5670 h1        1 MOL      0.087443
     30 H10         9.3940   -2.2700   -0.2730 hc        1 MOL      0.136115
     31 H11         9.5410   -1.7420   -1.9500 hc        1 MOL      0.136115
     32 H12         8.1130   -3.4700   -2.0200 hc        1 MOL      0.009046
     33 H13         6.9260   -2.2510   -1.9630 hc        1 MOL      0.009046
     34 H14         6.3710   -2.8680    0.4330 hc        1 MOL      0.054307
     35 H15         7.7590   -3.9920    0.3610 hc        1 MOL      0.054307
     36 H16         6.6700   -5.2970   -1.4180 hx        1 MOL      0.033364
     37 H17         5.4250   -4.0570   -1.4830 hx        1 MOL      0.033364
     38 H18         4.5850   -5.9660   -0.1080 hn        1 MOL      0.310619
     39 H19         5.8410   -5.8460    0.8530 hn        1 MOL      0.310619
     40 H20         4.7750   -4.6800    0.8230 hn        1 MOL      0.310619
     41 N4          6.2150    0.0740    0.2860 n         1 MOL     -0.276446
     42 C13         5.0920   -0.1290    1.2450 c3        1 MOL      0.095369
     43 C14         3.7310   -0.1860    0.4650 c         1 MOL      0.396622
     44 O6          3.7830    0.2810   -0.6530 o         1 MOL     -0.504501
     45 C15         5.0400    0.8880    2.3550 c3        1 MOL     -0.414150
     46 C16         5.4880    2.3130    1.9750 c         1 MOL      0.759750
     47 O7          4.7790    3.1300    1.3280 o         1 MOL     -0.722856
     48 O8          6.6530    2.6830    2.2060 o         1 MOL     -0.722856
     49 H21         5.9350    0.2480   -0.6680 hn        1 MOL      0.123379
     50 H22         5.0970   -1.1780    1.5050 h1        1 MOL      0.019708
     51 H23         5.6290    0.6030    3.2240 hc        1 MOL      0.144758
     52 H24         3.9780    0.7730    2.5860 hc        1 MOL      0.144758
     53 N5          2.6800   -0.8990    0.8960 n         1 MOL     -0.214758
     54 C17         2.5300   -1.5430    2.1890 c3        1 MOL     -0.248419
     55 C18         2.6350   -3.0290    2.1020 c         1 MOL      0.738175
     56 O9          3.3820   -3.5710    1.2790 o         1 MOL     -0.573556
     57 H25         1.8850   -0.9480    0.2780 hn        1 MOL      0.231425
     58 H26         1.5340   -1.3610    2.5940 h1        1 MOL      0.121673
     59 H27         3.2420   -1.1170    2.9050 h1        1 MOL      0.121673
     60 N6          1.9640   -3.8020    2.9130 n         1 MOL     -0.505767
     61 C19         2.1480   -5.2340    3.0140 c3        1 MOL     -0.125669
     62 C20         1.2990   -6.0210    1.9420 c         1 MOL      0.588114
     63 O10         1.8830   -6.9990    1.4730 o         1 MOL     -0.566626
     64 C21         1.7440   -5.6160    4.4190 c3        1 MOL      0.061699
     65 C22         2.1570   -4.6450    5.4940 c         1 MOL      0.643554
     66 O11         3.3770   -4.7660    5.9050 o         1 MOL     -0.684202
     67 O12         1.2630   -3.9100    6.0560 o         1 MOL     -0.684202
     68 H28         1.2240   -3.3660    3.4390 hn        1 MOL      0.273246
     69 H29         3.1880   -5.5100    2.8350 h1        1 MOL      0.077312
     70 H30         2.0530   -6.6330    4.6610 hc        1 MOL     -0.015944
     71 H31         0.6530   -5.6460    4.4240 hc        1 MOL     -0.015944
     72 N7          0.1270   -5.5900    1.4920 n         1 MOL     -0.324262
     73 C23        -0.6010   -6.2190    0.3440 c3        1 MOL     -0.233085
     74 C24        -0.3650   -5.4970   -1.0490 c         1 MOL      0.527157
     75 O13        -0.7830   -5.9260   -2.1030 o         1 MOL     -0.518042
     76 H32        -0.2900   -4.7670    1.9070 hn        1 MOL      0.281985
     77 H33        -1.6670   -6.1100    0.5520 h1        1 MOL      0.138456
     78 H34        -0.3310   -7.2710    0.4300 h1        1 MOL      0.138456
     79 N8          0.3090   -4.3410   -0.9880 n         1 MOL     -0.129881
     80 C25         0.4370   -3.4540   -2.1240 c3        1 MOL      0.109632
     81 C26         0.1620   -1.9750   -1.8960 c         1 MOL      0.404889
     82 O14         0.4190   -1.5110   -0.8020 o         1 MOL     -0.500739
     83 C27         1.7750   -3.6730   -2.8040 c3        1 MOL      0.156771
     84 C28         2.9620   -3.7710   -1.9140 c3        1 MOL     -0.200883
     85 O15         1.7850   -4.8030   -3.6650 oh        1 MOL     -0.593984
     86 H35         0.7330   -4.1360   -0.0900 hn        1 MOL      0.042468
     87 H36        -0.3950   -3.7040   -2.7750 h1        1 MOL      0.072950
     88 H37         1.9590   -2.8280   -3.4640 h1        1 MOL      0.015076
     89 H38         2.7040   -4.8730   -3.9390 ho        1 MOL      0.383052
     90 H39         2.9650   -2.8250   -1.3740 hc        1 MOL      0.052799
     91 H40         2.9640   -4.6340   -1.2620 hc        1 MOL      0.052799
     92 H41         3.8390   -3.7700   -2.5670 hc        1 MOL      0.052799
     93 N9         -0.2950   -1.2700   -2.9150 n         1 MOL     -0.166713
     94 C29        -0.7260    0.1330   -2.7240 c3        1 MOL     -0.388258
     95 C30        -2.0960    0.1220   -2.0020 c         1 MOL      0.708458
     96 O16        -2.5020    1.1550   -1.4770 o         1 MOL     -0.535042
     97 C31        -0.7750    0.8430   -4.0890 c3        1 MOL      0.269381
     98 C32         0.4360    0.5610   -4.9810 c3        1 MOL     -0.269639
     99 C33        -0.8370    2.3820   -4.0790 c3        1 MOL     -0.234824
    100 C34         1.8370    0.7260   -4.4220 c3        1 MOL     -0.133651
    101 H42        -0.5570   -1.7320   -3.7730 hn        1 MOL      0.223922
    102 H43        -0.0690    0.7150   -2.0840 h1        1 MOL      0.214605
    103 H44        -1.6850    0.6270   -4.6400 hc        1 MOL      0.000781
    104 H45         0.3040    1.1800   -5.8680 hc        1 MOL      0.088454
    105 H46         0.3750   -0.4420   -5.4170 hc        1 MOL      0.088454
    106 H47        -1.6730    2.6450   -3.4220 hc        1 MOL      0.068651
    107 H48         0.0140    2.7310   -3.4940 hc        1 MOL      0.068651
    108 H49        -0.9660    2.8120   -5.0740 hc        1 MOL      0.068651
    109 H50         1.9990    1.7030   -3.9700 hc        1 MOL      0.046470
    110 H51         1.9030    0.1400   -3.5120 hc        1 MOL      0.046470
    111 H52         2.6030    0.5400   -5.1730 hc        1 MOL      0.046470
    112 N10        -2.7890   -1.0180   -1.8560 n         1 MOL     -0.555086
    113 C35        -4.0300   -1.1960   -1.0980 c3        1 MOL      0.006933
    114 C36        -5.2420   -1.8440   -1.9140 c         1 MOL      0.729228
    115 O17        -5.0480   -2.3210   -3.0810 o         1 MOL     -0.555666
    116 C37        -3.7200   -1.8890    0.2590 c3        1 MOL      0.153019
    117 C38        -3.4040   -3.3820    0.0870 c3        1 MOL      0.019316
    118 O18        -2.5730   -1.2920    0.8730 oh        1 MOL     -0.536290
    119 H53        -2.3480   -1.8710   -2.1730 hn        1 MOL      0.249807
    120 H54        -4.5290   -0.2550   -0.8730 h1        1 MOL      0.085824
    121 H55        -4.5580   -1.8730    0.9580 h1        1 MOL      0.053027
    122 H56        -2.5050   -0.4570    0.4120 ho        1 MOL      0.360816
    123 H57        -3.4990   -3.8460    1.0690 hc        1 MOL     -0.008444
    124 H58        -4.1910   -3.8820   -0.4700 hc        1 MOL     -0.008444
    125 H59        -2.4910   -3.6030   -0.4610 hc        1 MOL     -0.008444
    126 N11        -6.4740   -1.7080   -1.4170 n         1 MOL     -0.604129
    127 C39        -7.7340   -1.9810   -2.1120 c3        1 MOL      0.004805
    128 C40        -8.6260   -0.7640   -2.1350 c         1 MOL      0.690093
    129 O19        -9.0680   -0.3610   -3.2390 o         1 MOL     -0.558042
    130 C41        -8.4460   -3.1660   -1.4220 c3        1 MOL      0.193754
    131 C42        -9.7670   -3.5380   -2.0670 c3        1 MOL     -0.407012
    132 O20        -8.7440   -2.9110   -0.0510 oh        1 MOL     -0.627501
    133 H60        -6.5460   -1.2640   -0.5120 hn        1 MOL      0.252254
    134 H61        -7.4360   -2.1750   -3.1410 h1        1 MOL      0.113148
    135 H62        -7.7900   -4.0350   -1.4750 h1        1 MOL      0.082520
    136 H63        -8.9160   -3.7080    0.4670 ho        1 MOL      0.415308
    137 H64       -10.5440   -2.8300   -1.8180 hc        1 MOL      0.114770
    138 H65        -9.6840   -3.5170   -3.1590 hc        1 MOL      0.114770
    139 H66       -10.0240   -4.5870   -1.9470 hc        1 MOL      0.114770
    140 N12        -8.8280   -0.2030   -0.9150 n         1 MOL     -0.496233
    141 C43        -9.7430    0.9780   -0.7290 c3        1 MOL     -0.040668
    142 C44        -9.1580    2.0350    0.2210 c         1 MOL      0.633311
    143 O21        -8.2400    1.7820    0.9950 o         1 MOL     -0.543688
    144 C45       -11.1650    0.5210   -0.2690 c3        1 MOL     -0.288393
    145 C46       -11.1410   -0.2870    1.1390 c3        1 MOL     -0.010748
    146 C47       -12.5140   -0.9160    1.3670 c3        1 MOL      0.051897
    147 C48       -12.3410   -2.0620    2.4710 c3        1 MOL     -0.105880
    148 N13       -13.6680   -2.6630    2.4830 n4        1 MOL     -0.019139
    149 H67        -8.5210   -0.7220   -0.1000 hn        1 MOL      0.326071
    150 H68        -9.8740    1.5040   -1.6770 h1        1 MOL      0.119128
    151 H69       -11.5180   -0.1790   -1.0310 hc        1 MOL      0.118045
    152 H70       -11.9220    1.3060   -0.2380 hc        1 MOL      0.118045
    153 H71       -10.7580    0.3390    1.9510 hc        1 MOL      0.055850
    154 H72       -10.4310   -1.1020    1.0810 hc        1 MOL      0.055850
    155 H73       -12.8320   -1.2860    0.3890 hc        1 MOL      0.006714
    156 H74       -13.2580   -0.1420    1.5900 hc        1 MOL      0.006714
    157 H75       -12.0300   -1.4550    3.3200 hx        1 MOL      0.099592
    158 H76       -11.5390   -2.6440    2.0170 hx        1 MOL      0.099592
    159 H77       -14.3700   -2.0590    2.8870 hn        1 MOL      0.178044
    160 H78       -13.9680   -2.7510    1.5180 hn        1 MOL      0.178044
    161 H79       -13.7490   -3.5430    2.9800 hn        1 MOL      0.178044
    162 N14        -9.7700    3.2220    0.1720 n         1 MOL     -0.551024
    163 C49        -9.7000    4.2870    1.2000 c3        1 MOL      0.341348
    164 C50        -8.2710    4.6440    1.6910 c         1 MOL      0.382829
    165 O22        -8.0180    4.8310    2.9080 o         1 MOL     -0.525884
    166 C51       -10.5290    5.4640    0.6840 c3        1 MOL     -0.164872
    167 C52       -11.0160    6.3940    1.7920 c3        1 MOL     -0.169520
    168 C53       -11.5240    7.6970    1.2340 c         1 MOL      0.723241
    169 O23       -10.6570    8.5150    0.8420 o         1 MOL     -0.640181
    170 O24       -12.6990    8.0360    1.2290 o         1 MOL     -0.640181
    171 H80       -10.5190    3.2840   -0.5100 hn        1 MOL      0.266456
    172 H81       -10.1060    3.8620    2.1150 h1        1 MOL     -0.007269
    173 H82       -11.4020    5.1210    0.1190 hc        1 MOL      0.052183
    174 H83        -9.7930    6.0140    0.0980 hc        1 MOL      0.052183
    175 H84       -10.2040    6.5870    2.4860 hc        1 MOL      0.038252
    176 H85       -11.7580    5.8350    2.3700 hc        1 MOL      0.038252
    177 N15        -7.2510    4.9410    0.8310 n         1 MOL     -0.330948
    178 C54        -7.1700    5.0230   -0.7020 c3        1 MOL      0.006433
    179 H86        -8.0020    4.4730   -1.1400 h1        1 MOL      0.042456
    180 H87        -7.2220    6.0670   -1.0130 h1        1 MOL      0.042456
    181 H88        -6.2300    4.5880   -1.0420 h1        1 MOL      0.042456
    182 H89        -6.4210    5.2500    1.3110 hn        1 MOL      0.279471
    183 Ca1         6.8570    4.5110    0.3090 Ca        1 MOL      1.756969
    184 O25         5.8710    6.2110    2.4070 oh        1 MOL     -0.903928
    185 H90         5.1720    6.7970    2.1030 ho        1 MOL      0.441703
    186 H91         5.9330    6.3880    3.3500 ho        1 MOL      0.441703
    187 O26         5.2900    2.9770   -1.4120 oh        1 MOL     -0.903928
    188 H92         5.6160    2.7780   -2.2910 ho        1 MOL      0.441703
    189 H93         4.5300    2.4000   -1.2940 ho        1 MOL      0.441703
    190 O27         4.5220    5.3960   -0.5160 oh        1 MOL     -0.903928
    191 H94         3.8870    4.7430   -0.8010 ho        1 MOL      0.441703
    192 H95         4.0580    6.2310   -0.5730 ho        1 MOL      0.441703
@<TRIPOS>BOND
     1    1    2 1   
     2    1    4 1   
     3    1    5 1   
     4    1    6 1   
     5    2    3 2   
     6    2    7 1   
     7    7    8 1   
     8    7   15 1   
     9    8    9 1   
    10    8   11 1   
    11    8   16 1   
    12    9   10 2   
    13    9   19 1   
    14   11   12 1   
    15   11   17 1   
    16   11   18 1   
    17   12   13 1   
    18   12   14 1   
    19   19   20 1   
    20   19   28 1   
    21   20   21 1   
    22   20   23 1   
    23   20   29 1   
    24   21   22 2   
    25   21   41 1   
    26   23   24 1   
    27   23   30 1   
    28   23   31 1   
    29   24   25 1   
    30   24   32 1   
    31   24   33 1   
    32   25   26 1   
    33   25   34 1   
    34   25   35 1   
    35   26   27 1   
    36   26   36 1   
    37   26   37 1   
    38   27   38 1   
    39   27   39 1   
    40   27   40 1   
    41   41   42 1   
    42   41   49 1   
    43   42   43 1   
    44   42   45 1   
    45   42   50 1   
    46   43   44 2   
    47   43   53 1   
    48   45   46 1   
    49   45   51 1   
    50   45   52 1   
    51   46   47 1   
    52   46   48 1   
    53   53   54 1   
    54   53   57 1   
    55   54   55 1   
    56   54   58 1   
    57   54   59 1   
    58   55   56 2   
    59   55   60 1   
    60   60   61 1   
    61   60   68 1   
    62   61   62 1   
    63   61   64 1   
    64   61   69 1   
    65   62   63 2   
    66   62   72 1   
    67   64   65 1   
    68   64   70 1   
    69   64   71 1   
    70   65   66 1   
    71   65   67 1   
    72   72   73 1   
    73   72   76 1   
    74   73   74 1   
    75   73   77 1   
    76   73   78 1   
    77   74   75 2   
    78   74   79 1   
    79   79   80 1   
    80   79   86 1   
    81   80   81 1   
    82   80   83 1   
    83   80   87 1   
    84   81   82 2   
    85   81   93 1   
    86   83   84 1   
    87   83   85 1   
    88   83   88 1   
    89   84   90 1   
    90   84   91 1   
    91   84   92 1   
    92   85   89 1   
    93   93   94 1   
    94   93  101 1   
    95   94   95 1   
    96   94   97 1   
    97   94  102 1   
    98   95   96 2   
    99   95  112 1   
   100   97   98 1   
   101   97   99 1   
   102   97  103 1   
   103   98  100 1   
   104   98  104 1   
   105   98  105 1   
   106   99  106 1   
   107   99  107 1   
   108   99  108 1   
   109  100  109 1   
   110  100  110 1   
   111  100  111 1   
   112  112  113 1   
   113  112  119 1   
   114  113  114 1   
   115  113  116 1   
   116  113  120 1   
   117  114  115 2   
   118  114  126 1   
   119  116  117 1   
   120  116  118 1   
   121  116  121 1   
   122  117  123 1   
   123  117  124 1   
   124  117  125 1   
   125  118  122 1   
   126  126  127 1   
   127  126  133 1   
   128  127  128 1   
   129  127  130 1   
   130  127  134 1   
   131  128  129 2   
   132  128  140 1   
   133  130  131 1   
   134  130  132 1   
   135  130  135 1   
   136  131  137 1   
   137  131  138 1   
   138  131  139 1   
   139  132  136 1   
   140  140  141 1   
   141  140  149 1   
   142  141  142 1   
   143  141  144 1   
   144  141  150 1   
   145  142  143 2   
   146  142  162 1   
   147  144  145 1   
   148  144  151 1   
   149  144  152 1   
   150  145  146 1   
   151  145  153 1   
   152  145  154 1   
   153  146  147 1   
   154  146  155 1   
   155  146  156 1   
   156  147  148 1   
   157  147  157 1   
   158  147  158 1   
   159  148  159 1   
   160  148  160 1   
   161  148  161 1   
   162  162  163 1   
   163  162  171 1   
   164  163  164 1   
   165  163  166 1   
   166  163  172 1   
   167  164  165 2   
   168  164  177 1   
   169  166  167 1   
   170  166  173 1   
   171  166  174 1   
   172  167  168 1   
   173  167  175 1   
   174  167  176 1   
   175  168  169 1   
   176  168  170 1   
   177  177  178 1   
   178  177  182 1   
   179  178  179 1   
   180  178  180 1   
   181  178  181 1   
   182  184  185 1   
   183  184  186 1   
   184  187  188 1   
   185  187  189 1   
   186  190  191 1   
   187  190  192 1   
@<TRIPOS>SUBSTRUCTURE
     1 MOL         1 TEMP              0 ****  ****    0 ROOT
