@<TRIPOS>MOLECULE
MOL
  192   187     1     0     0
SMALL
resp


@<TRIPOS>ATOM
      1 C1         12.3280    5.8060   -2.1880 c3        1 MOL     -0.452872
      2 C2         12.3330    4.4910   -1.3990 c         1 MOL      0.699905
      3 O1         13.3350    3.8270   -1.3270 o         1 MOL     -0.544685
      4 H1         12.7290    5.6310   -3.1860 hc        1 MOL      0.117283
      5 H2         11.3070    6.1800   -2.2670 hc        1 MOL      0.117283
      6 H3         12.9460    6.5420   -1.6740 hc        1 MOL      0.117283
      7 N1         11.1560    4.0540   -0.8690 n         1 MOL     -0.161005
      8 C3         10.9170    2.8330   -0.0870 c3        1 MOL     -0.678648
      9 C4          9.5320    2.2070   -0.3480 c         1 MOL      0.651716
     10 O2          8.5860    2.9570   -0.6300 o         1 MOL     -0.562527
     11 C5         11.2040    3.0360    1.4580 c3        1 MOL      0.160976
     12 C6         10.4600    4.3350    1.9880 c         1 MOL      0.557445
     13 O3          9.2450    4.3950    1.9080 o         1 MOL     -0.666053
     14 O4         11.2120    5.1800    2.4850 o         1 MOL     -0.666053
     15 H4         10.2850    4.5110   -1.1000 hn        1 MOL      0.133520
     16 H5         11.6480    2.0790   -0.3610 h1        1 MOL      0.180471
     17 H6         12.2840    3.1390    1.5830 hc        1 MOL      0.030292
     18 H7         10.9090    2.1570    2.0350 hc        1 MOL      0.030292
     19 N2          9.5220    0.8710   -0.4640 n         1 MOL     -0.258590
     20 C7          8.2280    0.1230   -0.7920 c3        1 MOL     -0.188551
     21 C8          7.3290   -0.3060    0.4020 c         1 MOL      0.616094
     22 O5          7.9240   -0.8160    1.3330 o         1 MOL     -0.519625
     23 C9          8.4610   -0.9780   -1.7680 c3        1 MOL     -0.180593
     24 C10         9.2750   -2.2360   -1.3340 c3        1 MOL      0.011307
     25 C11         9.5500   -3.2210   -2.4710 c3        1 MOL     -0.046224
     26 C12         8.3230   -3.8610   -3.1220 c3        1 MOL     -0.112772
     27 N3          7.6290   -4.7970   -2.2690 n4        1 MOL     -0.256390
     28 H8         10.3900    0.4000   -0.2810 hn        1 MOL      0.287098
     29 H9          7.6070    0.8610   -1.2960 h1        1 MOL      0.117796
     30 H10         8.9430   -0.5870   -2.6710 hc        1 MOL      0.077313
     31 H11         7.4600   -1.2500   -2.1110 hc        1 MOL      0.077313
     32 H12         8.7730   -2.8960   -0.6280 hc        1 MOL      0.036742
     33 H13        10.2210   -1.9440   -0.8990 hc        1 MOL      0.036742
     34 H14        10.2510   -3.9670   -2.1020 hc        1 MOL      0.069013
     35 H15        10.0660   -2.6520   -3.2420 hc        1 MOL      0.069013
     36 H16         8.6140   -4.4370   -4.0070 hx        1 MOL      0.105698
     37 H17         7.6670   -3.0420   -3.3860 hx        1 MOL      0.105698
     38 H18         6.9350   -5.3600   -2.7300 hn        1 MOL      0.294073
     39 H19         8.3000   -5.4170   -1.8450 hn        1 MOL      0.294073
     40 H20         7.1090   -4.2620   -1.5780 hn        1 MOL      0.294073
     41 N4          6.0520    0.1160    0.3300 n         1 MOL     -0.500654
     42 C13         5.0830   -0.2280    1.3310 c3        1 MOL      0.296607
     43 C14         3.7380   -0.4380    0.7040 c         1 MOL      0.349843
     44 O6          3.5110    0.2470   -0.3500 o         1 MOL     -0.515636
     45 C15         5.1260    0.8950    2.4290 c3        1 MOL      0.032143
     46 C16         5.4390    2.3310    2.0130 c         1 MOL      0.613574
     47 O7          6.5730    2.7940    2.3020 o         1 MOL     -0.725743
     48 O8          4.7030    2.9880    1.2470 o         1 MOL     -0.725743
     49 H21         5.7260    0.5640   -0.5190 hn        1 MOL      0.211223
     50 H22         5.4740   -1.1580    1.7630 h1        1 MOL     -0.016494
     51 H23         5.8800    0.6460    3.1790 hc        1 MOL     -0.003725
     52 H24         4.1370    0.8370    2.8620 hc        1 MOL     -0.003725
     53 N5          2.8170   -1.2480    1.2460 n         1 MOL     -0.297901
     54 C17         2.8220   -2.0860    2.4010 c3        1 MOL     -0.026985
     55 C18         2.8850   -3.6030    1.9460 c         1 MOL      0.481133
     56 O9          2.9310   -3.8720    0.7300 o         1 MOL     -0.612819
     57 H25         1.9290   -1.1660    0.7690 hn        1 MOL      0.276038
     58 H26         1.8540   -1.9460    2.8860 h1        1 MOL      0.079133
     59 H27         3.5800   -1.8170    3.1440 h1        1 MOL      0.079133
     60 N6          2.7460   -4.5580    2.8450 n         1 MOL     -0.179340
     61 C19         2.9610   -5.9720    2.6210 c3        1 MOL     -0.040363
     62 C20         1.8440   -6.6860    1.7490 c         1 MOL      0.453635
     63 O10         2.0740   -7.7150    1.1700 o         1 MOL     -0.543163
     64 C21         3.2200   -6.7120    3.8790 c3        1 MOL     -0.187055
     65 C22         2.1600   -6.5040    4.9590 c         1 MOL      0.652183
     66 O11         1.2100   -7.2610    5.0280 o         1 MOL     -0.655621
     67 O12         2.1550   -5.3850    5.5810 o         1 MOL     -0.655621
     68 H28         2.6190   -4.2620    3.8000 hn        1 MOL      0.134745
     69 H29         3.9080   -6.1210    2.0990 h1        1 MOL      0.061694
     70 H30         4.1430   -6.4060    4.3660 hc        1 MOL      0.055805
     71 H31         3.2860   -7.7780    3.6870 hc        1 MOL      0.055805
     72 N7          0.6640   -6.1150    1.5370 n         1 MOL     -0.131570
     73 C23        -0.2900   -6.5070    0.5710 c3        1 MOL      0.029627
     74 C24        -0.3030   -5.5750   -0.6430 c         1 MOL      0.515973
     75 O13        -1.1250   -5.9120   -1.5210 o         1 MOL     -0.559007
     76 H32         0.4590   -5.3390    2.1520 hn        1 MOL      0.199769
     77 H33        -1.2920   -6.3630    0.9650 h1        1 MOL      0.055479
     78 H34        -0.2560   -7.5590    0.2780 h1        1 MOL      0.055479
     79 N8          0.4210   -4.3930   -0.6380 n         1 MOL     -0.314024
     80 C25         0.4460   -3.4580   -1.8270 c3        1 MOL      0.049529
     81 C26        -0.0650   -2.0790   -1.5190 c         1 MOL      0.421044
     82 O14         0.1730   -1.5570   -0.4070 o         1 MOL     -0.457514
     83 C27         1.9020   -3.3170   -2.4760 c3        1 MOL      0.499123
     84 C28         2.5920   -4.7180   -2.6830 c3        1 MOL     -0.451239
     85 O15         1.8240   -2.7360   -3.7630 oh        1 MOL     -0.696711
     86 H35         1.0820   -4.1670    0.0840 hn        1 MOL      0.152730
     87 H36        -0.1130   -3.9400   -2.6200 h1        1 MOL      0.060547
     88 H37         2.4700   -2.5910   -1.9040 h1        1 MOL     -0.043616
     89 H38         2.7070   -2.5400   -4.0830 ho        1 MOL      0.409198
     90 H39         1.9530   -5.3960   -3.2430 hc        1 MOL      0.103691
     91 H40         3.6010   -4.6030   -3.0680 hc        1 MOL      0.103691
     92 H41         2.6920   -5.2120   -1.7120 hc        1 MOL      0.103691
     93 N9         -0.7780   -1.3340   -2.4700 n         1 MOL     -0.407631
     94 C29        -1.3450   -0.0050   -2.2440 c3        1 MOL      0.021778
     95 C30        -2.7070   -0.1260   -1.5250 c         1 MOL      0.490225
     96 O16        -2.9510    0.7370   -0.6420 o         1 MOL     -0.525335
     97 C31        -1.2920    0.8680   -3.5470 c3        1 MOL      0.097727
     98 C32         0.1230    0.9510   -4.1220 c3        1 MOL      0.110266
     99 C33        -1.8580    2.2850   -3.0420 c3        1 MOL     -0.308781
    100 C34         1.3480    1.2230   -3.2580 c3        1 MOL     -0.166404
    101 H42        -0.9550   -1.7160   -3.3900 hn        1 MOL      0.279826
    102 H43        -0.6950    0.4500   -1.5090 h1        1 MOL      0.104979
    103 H44        -1.9460    0.4190   -4.2990 hc        1 MOL      0.006065
    104 H45         0.0620    1.7760   -4.8360 hc        1 MOL     -0.031254
    105 H46         0.3330    0.1020   -4.7640 hc        1 MOL     -0.031254
    106 H47        -1.4210    2.4010   -2.0540 hc        1 MOL      0.090839
    107 H48        -1.5130    3.0740   -3.7040 hc        1 MOL      0.090839
    108 H49        -2.9440    2.3280   -3.0410 hc        1 MOL      0.090839
    109 H50         1.4870    0.5810   -2.3960 hc        1 MOL      0.035675
    110 H51         2.2610    1.1080   -3.8480 hc        1 MOL      0.035675
    111 H52         1.4230    2.2360   -2.8380 hc        1 MOL      0.035675
    112 N10        -3.5380   -1.1650   -1.7460 n         1 MOL     -0.419143
    113 C35        -4.6570   -1.4510   -0.8510 c3        1 MOL      0.092695
    114 C36        -5.8410   -1.9910   -1.5940 c         1 MOL      0.617116
    115 O17        -5.7290   -2.3940   -2.7450 o         1 MOL     -0.521704
    116 C37        -4.3780   -2.3630    0.3310 c3        1 MOL      0.151796
    117 C38        -3.9320   -3.7230   -0.0380 c3        1 MOL     -0.173210
    118 O18        -3.1610   -1.9230    0.9820 oh        1 MOL     -0.559474
    119 H53        -3.2680   -1.8970   -2.4010 hn        1 MOL      0.244950
    120 H54        -4.9720   -0.4950   -0.4320 h1        1 MOL      0.043976
    121 H55        -5.1550   -2.3860    1.0950 h1        1 MOL      0.056002
    122 H56        -3.2990   -0.9860    1.1310 ho        1 MOL      0.382827
    123 H57        -3.4160   -4.1540    0.8180 hc        1 MOL      0.054515
    124 H58        -4.7710   -4.3230   -0.4080 hc        1 MOL      0.054515
    125 H59        -3.2120   -3.6970   -0.8590 hc        1 MOL      0.054515
    126 N11        -7.0800   -1.7470   -1.0690 n         1 MOL     -0.583210
    127 C39        -8.4220   -1.8520   -1.6970 c3        1 MOL      0.121057
    128 C40        -9.2540   -0.6240   -1.7850 c         1 MOL      0.577123
    129 O19        -9.6310   -0.1160   -2.8710 o         1 MOL     -0.582820
    130 C41        -9.0900   -3.1540   -1.0590 c3        1 MOL      0.155757
    131 C42       -10.4500   -3.5560   -1.6440 c3        1 MOL     -0.575728
    132 O20        -9.3000   -2.9740    0.3440 oh        1 MOL     -0.630113
    133 H60        -7.1180   -1.4390   -0.1090 hn        1 MOL      0.281341
    134 H61        -8.3100   -2.1240   -2.7470 h1        1 MOL      0.073929
    135 H62        -8.4100   -3.9990   -1.0200 h1        1 MOL      0.097008
    136 H63        -9.7440   -3.7870    0.5880 ho        1 MOL      0.413451
    137 H64       -10.7420   -4.4730   -1.1310 hc        1 MOL      0.161772
    138 H65       -11.2230   -2.8030   -1.5110 hc        1 MOL      0.161772
    139 H66       -10.3810   -3.7410   -2.7170 hc        1 MOL      0.161772
    140 N12        -9.4350    0.0250   -0.7030 n         1 MOL     -0.308042
    141 C43       -10.0210    1.4210   -0.5370 c3        1 MOL     -0.047150
    142 C44        -9.4400    2.2400    0.6130 c         1 MOL      0.375890
    143 O21        -8.8590    1.6150    1.4880 o         1 MOL     -0.484172
    144 C45       -11.5550    1.3380   -0.3800 c3        1 MOL     -0.111939
    145 C46       -12.0280    0.3170    0.7290 c3        1 MOL      0.124101
    146 C47       -13.5340    0.0860    0.6240 c3        1 MOL     -0.207455
    147 C48       -14.1000   -0.8590    1.7590 c3        1 MOL      0.184368
    148 N13       -15.5150   -1.0230    1.5590 n4        1 MOL     -0.304396
    149 H67        -9.1290   -0.4610    0.1320 hn        1 MOL      0.249328
    150 H68        -9.8710    2.0540   -1.4140 h1        1 MOL      0.121662
    151 H69       -12.0560    1.1320   -1.3250 hc        1 MOL      0.035470
    152 H70       -11.8610    2.3500   -0.1100 hc        1 MOL      0.035470
    153 H71       -11.6450    0.7450    1.6500 hc        1 MOL      0.003130
    154 H72       -11.6030   -0.6740    0.6110 hc        1 MOL      0.003130
    155 H73       -13.6820   -0.4350   -0.3130 hc        1 MOL      0.076907
    156 H74       -14.0640    1.0300    0.7140 hc        1 MOL      0.076907
    157 H75       -13.8660   -0.5560    2.7890 hx        1 MOL      0.037813
    158 H76       -13.6610   -1.8600    1.6660 hx        1 MOL      0.037813
    159 H77       -15.8990   -1.7180    2.1740 hn        1 MOL      0.266508
    160 H78       -15.8720   -0.1300    1.8650 hn        1 MOL      0.266508
    161 H79       -15.7170   -1.2130    0.5870 hn        1 MOL      0.266508
    162 N14        -9.4940    3.5600    0.6180 n         1 MOL     -0.235774
    163 C49        -8.6930    4.4320    1.4700 c3        1 MOL      0.050232
    164 C50        -7.1940    4.3420    1.1670 c         1 MOL      0.465988
    165 O22        -6.4140    4.1920    2.1070 o         1 MOL     -0.538253
    166 C51        -9.1880    5.8700    1.3220 c3        1 MOL      0.096354
    167 C52       -10.5760    6.2540    1.7870 c3        1 MOL     -0.311184
    168 C53       -11.0070    7.5720    1.1190 c         1 MOL      0.732198
    169 O23       -10.3240    8.5890    1.2300 o         1 MOL     -0.666250
    170 O24       -12.0660    7.5310    0.4580 o         1 MOL     -0.666250
    171 H80       -10.1070    4.1040    0.0190 hn        1 MOL      0.265228
    172 H81        -8.7700    4.1690    2.5180 h1        1 MOL      0.058153
    173 H82        -9.1790    5.9500    0.2360 hc        1 MOL      0.017591
    174 H83        -8.3810    6.5620    1.5820 hc        1 MOL      0.017591
    175 H84       -10.5800    6.3240    2.8700 hc        1 MOL      0.040340
    176 H85       -11.1870    5.4030    1.4720 hc        1 MOL      0.040340
    177 N15        -6.6310    4.3170   -0.0640 n         1 MOL     -0.394144
    178 C54        -7.2980    4.8940   -1.2940 c3        1 MOL     -0.021363
    179 H86        -6.6830    4.6900   -2.1700 h1        1 MOL      0.041455
    180 H87        -8.2790    4.4380   -1.4240 h1        1 MOL      0.041455
    181 H88        -7.4120    5.9720   -1.1740 h1        1 MOL      0.041455
    182 H89        -5.6450    4.0940   -0.0780 hn        1 MOL      0.297592
    183 Ca1         7.0100    4.6260    0.5570 Ca        1 MOL      1.760305
    184 O25         6.7950    6.1540    2.7060 oh        1 MOL     -0.880791
    185 H90         6.2970    6.8580    3.1290 ho        1 MOL      0.439466
    186 H91         7.5850    6.0650    3.2550 ho        1 MOL      0.439466
    187 O26         5.6950    2.8710   -1.2930 oh        1 MOL     -0.880791
    188 H92         4.7430    2.9140   -1.2430 ho        1 MOL      0.439466
    189 H93         5.8780    2.2650   -2.0060 ho        1 MOL      0.439466
    190 O27         4.5720    5.6590   -0.2130 oh        1 MOL     -0.880791
    191 H94         4.1290    6.1990    0.4400 ho        1 MOL      0.439466
    192 H95         3.8880    5.0660   -0.5430 ho        1 MOL      0.439466
@<TRIPOS>BOND
     1    1    2 1   
     2    1    4 1   
     3    1    5 1   
     4    1    6 1   
     5    2    3 2   
     6    2    7 1   
     7    7    8 1   
     8    7   15 1   
     9    8    9 1   
    10    8   11 1   
    11    8   16 1   
    12    9   10 2   
    13    9   19 1   
    14   11   12 1   
    15   11   17 1   
    16   11   18 1   
    17   12   13 1   
    18   12   14 1   
    19   19   20 1   
    20   19   28 1   
    21   20   21 1   
    22   20   23 1   
    23   20   29 1   
    24   21   22 2   
    25   21   41 1   
    26   23   24 1   
    27   23   30 1   
    28   23   31 1   
    29   24   25 1   
    30   24   32 1   
    31   24   33 1   
    32   25   26 1   
    33   25   34 1   
    34   25   35 1   
    35   26   27 1   
    36   26   36 1   
    37   26   37 1   
    38   27   38 1   
    39   27   39 1   
    40   27   40 1   
    41   41   42 1   
    42   41   49 1   
    43   42   43 1   
    44   42   45 1   
    45   42   50 1   
    46   43   44 2   
    47   43   53 1   
    48   45   46 1   
    49   45   51 1   
    50   45   52 1   
    51   46   47 1   
    52   46   48 1   
    53   53   54 1   
    54   53   57 1   
    55   54   55 1   
    56   54   58 1   
    57   54   59 1   
    58   55   56 2   
    59   55   60 1   
    60   60   61 1   
    61   60   68 1   
    62   61   62 1   
    63   61   64 1   
    64   61   69 1   
    65   62   63 2   
    66   62   72 1   
    67   64   65 1   
    68   64   70 1   
    69   64   71 1   
    70   65   66 1   
    71   65   67 1   
    72   72   73 1   
    73   72   76 1   
    74   73   74 1   
    75   73   77 1   
    76   73   78 1   
    77   74   75 2   
    78   74   79 1   
    79   79   80 1   
    80   79   86 1   
    81   80   81 1   
    82   80   83 1   
    83   80   87 1   
    84   81   82 2   
    85   81   93 1   
    86   83   84 1   
    87   83   85 1   
    88   83   88 1   
    89   84   90 1   
    90   84   91 1   
    91   84   92 1   
    92   85   89 1   
    93   93   94 1   
    94   93  101 1   
    95   94   95 1   
    96   94   97 1   
    97   94  102 1   
    98   95   96 2   
    99   95  112 1   
   100   97   98 1   
   101   97   99 1   
   102   97  103 1   
   103   98  100 1   
   104   98  104 1   
   105   98  105 1   
   106   99  106 1   
   107   99  107 1   
   108   99  108 1   
   109  100  109 1   
   110  100  110 1   
   111  100  111 1   
   112  112  113 1   
   113  112  119 1   
   114  113  114 1   
   115  113  116 1   
   116  113  120 1   
   117  114  115 2   
   118  114  126 1   
   119  116  117 1   
   120  116  118 1   
   121  116  121 1   
   122  117  123 1   
   123  117  124 1   
   124  117  125 1   
   125  118  122 1   
   126  126  127 1   
   127  126  133 1   
   128  127  128 1   
   129  127  130 1   
   130  127  134 1   
   131  128  129 2   
   132  128  140 1   
   133  130  131 1   
   134  130  132 1   
   135  130  135 1   
   136  131  137 1   
   137  131  138 1   
   138  131  139 1   
   139  132  136 1   
   140  140  141 1   
   141  140  149 1   
   142  141  142 1   
   143  141  144 1   
   144  141  150 1   
   145  142  143 2   
   146  142  162 1   
   147  144  145 1   
   148  144  151 1   
   149  144  152 1   
   150  145  146 1   
   151  145  153 1   
   152  145  154 1   
   153  146  147 1   
   154  146  155 1   
   155  146  156 1   
   156  147  148 1   
   157  147  157 1   
   158  147  158 1   
   159  148  159 1   
   160  148  160 1   
   161  148  161 1   
   162  162  163 1   
   163  162  171 1   
   164  163  164 1   
   165  163  166 1   
   166  163  172 1   
   167  164  165 2   
   168  164  177 1   
   169  166  167 1   
   170  166  173 1   
   171  166  174 1   
   172  167  168 1   
   173  167  175 1   
   174  167  176 1   
   175  168  169 1   
   176  168  170 1   
   177  177  178 1   
   178  177  182 1   
   179  178  179 1   
   180  178  180 1   
   181  178  181 1   
   182  184  185 1   
   183  184  186 1   
   184  187  188 1   
   185  187  189 1   
   186  190  191 1   
   187  190  192 1   
@<TRIPOS>SUBSTRUCTURE
     1 MOL         1 TEMP              0 ****  ****    0 ROOT
