@<TRIPOS>MOLECULE
MOL
  185   180     1     0     0
SMALL
resp


@<TRIPOS>ATOM
      1 C1         -6.0420    0.4410   -4.0990 c3        1 MOL     -0.413219
      2 C2         -6.8560    0.6020   -2.8540 c         1 MOL      0.686512
      3 O1         -6.3540    0.8970   -1.7790 o         1 MOL     -0.617296
      4 H1         -6.6690    0.6340   -4.9700 hc        1 MOL      0.110087
      5 H2         -5.2130    1.1480   -4.0860 hc        1 MOL      0.110087
      6 H3         -5.6520   -0.5760   -4.1500 hc        1 MOL      0.110087
      7 N1         -8.1710    0.4810   -2.9430 n         1 MOL     -0.627646
      8 C3         -9.2410    0.6240   -1.8520 c3        1 MOL      0.394161
      9 C4         -9.0460   -0.0850   -0.5210 c         1 MOL      0.288089
     10 O2         -9.7340    0.2180    0.4520 o         1 MOL     -0.436299
     11 C5         -9.6060    2.0610   -1.5980 c3        1 MOL     -0.284141
     12 C6        -11.1080    2.2270   -1.1310 c         1 MOL      0.658831
     13 O3        -11.9790    1.3030   -1.0380 o         1 MOL     -0.662997
     14 O4        -11.4420    3.4250   -0.8940 o         1 MOL     -0.662997
     15 H4         -8.5410    0.2990   -3.8630 hn        1 MOL      0.327856
     16 H5        -10.0280    0.1630   -2.4560 h1        1 MOL     -0.036225
     17 H6         -9.4940    2.5970   -2.5430 hc        1 MOL      0.086823
     18 H7         -8.9270    2.5200   -0.8730 hc        1 MOL      0.086823
     19 N2         -8.1320   -1.0660   -0.4910 n         1 MOL     -0.371333
     20 C7         -7.9080   -1.9210    0.6500 c3        1 MOL      0.205313
     21 C8         -6.4320   -1.8740    1.1890 c         1 MOL      0.627512
     22 O5         -6.0970   -2.5950    2.1080 o         1 MOL     -0.582210
     23 C9         -8.3800   -3.3550    0.4000 c3        1 MOL     -0.435581
     24 C10        -9.9020   -3.5350    0.3300 c3        1 MOL      0.314977
     25 C11       -10.2990   -5.0100    0.0220 c3        1 MOL     -0.062311
     26 C12       -11.8760   -5.1710    0.0610 c3        1 MOL     -0.028278
     27 N3        -12.4980   -4.3520    1.0940 n4        1 MOL     -0.182385
     28 H8         -7.5990   -1.1650   -1.3460 hn        1 MOL      0.195641
     29 H9         -8.4450   -1.5360    1.5150 h1        1 MOL      0.069161
     30 H10        -8.1280   -4.0090    1.2440 hc        1 MOL      0.095653
     31 H11        -7.9410   -3.6920   -0.5420 hc        1 MOL      0.095653
     32 H12       -10.4030   -2.8470   -0.3510 hc        1 MOL     -0.033960
     33 H13       -10.2450   -3.2360    1.3200 hc        1 MOL     -0.033960
     34 H14        -9.8970   -5.6310    0.8310 hc        1 MOL      0.039922
     35 H15        -9.8980   -5.3050   -0.9420 hc        1 MOL      0.039922
     36 H16       -12.1200   -6.2300    0.1880 hx        1 MOL      0.082584
     37 H17       -12.2100   -4.8650   -0.9300 hx        1 MOL      0.082584
     38 H18       -12.1280   -4.4360    2.0290 hn        1 MOL      0.256498
     39 H19       -12.4920   -3.3690    0.8740 hn        1 MOL      0.256498
     40 H20       -13.4690   -4.6410    1.1140 hn        1 MOL      0.256498
     41 N4         -5.5110   -1.0200    0.5710 n         1 MOL     -0.661433
     42 C13        -4.0380   -0.9180    0.8820 c3        1 MOL      0.247607
     43 C14        -3.6810   -0.7920    2.4120 c         1 MOL      0.454127
     44 O6         -3.9960    0.2200    3.0530 o         1 MOL     -0.468226
     45 C15        -3.3890    0.2120    0.0400 c3        1 MOL     -0.061473
     46 C16        -1.9120    0.0330   -0.0530 c         1 MOL      0.565841
     47 O7         -1.2950   -0.0720   -1.1480 o         1 MOL     -0.681630
     48 O8         -1.1870   -0.1460    0.9450 o         1 MOL     -0.681630
     49 H21        -5.8950   -0.5730   -0.2380 hn        1 MOL      0.375623
     50 H22        -3.6710   -1.8630    0.4870 h1        1 MOL     -0.018454
     51 H23        -3.6470    1.1840    0.4660 hc        1 MOL      0.052221
     52 H24        -3.7570    0.1020   -0.9790 hc        1 MOL      0.052221
     53 N5         -3.2220   -1.9050    3.0240 n         1 MOL     -0.216490
     54 C17        -2.7760   -1.8470    4.4550 c3        1 MOL     -0.206075
     55 C18        -1.3900   -1.1960    4.7680 c         1 MOL      0.476753
     56 O9         -1.0230   -1.2970    5.9160 o         1 MOL     -0.558445
     57 H25        -3.1720   -2.8210    2.5970 hn        1 MOL      0.233006
     58 H26        -2.7980   -2.8530    4.8870 h1        1 MOL      0.119255
     59 H27        -3.4580   -1.1380    4.9310 h1        1 MOL      0.119255
     60 N6         -0.7100   -0.6070    3.8340 n         1 MOL     -0.084151
     61 C19         0.3820    0.3460    4.1550 c3        1 MOL      0.061224
     62 C20         0.1570    1.7290    3.4600 c         1 MOL      0.431688
     63 O10         1.0220    2.6220    3.4000 o         1 MOL     -0.505475
     64 C21         1.7490   -0.3230    4.0130 c3        1 MOL     -0.311320
     65 C22         2.3700   -0.1430    2.6730 c         1 MOL      0.689955
     66 N7          3.5570    0.3340    2.6380 n         1 MOL     -0.719838
     67 O11         1.7590   -0.5450    1.6770 o         1 MOL     -0.635806
     68 H28        -1.0190   -0.8610    2.9000 hn        1 MOL      0.046806
     69 H29         0.2940    0.5120    5.2300 h1        1 MOL      0.092126
     70 H30         1.6980   -1.3770    4.2890 hc        1 MOL      0.104581
     71 H31         2.3990    0.1910    4.7240 hc        1 MOL      0.104581
     72 H32         4.0230    0.5140    3.5170 hn        1 MOL      0.346041
     73 H33         4.0190    0.4550    1.7500 hn        1 MOL      0.346041
     74 N8         -1.1020    1.9290    3.0500 n         1 MOL     -0.324929
     75 C23        -1.5680    3.1500    2.3600 c3        1 MOL      0.048813
     76 C24        -0.6720    3.6850    1.3000 c         1 MOL      0.456848
     77 O12        -0.2730    4.8640    1.3000 o         1 MOL     -0.530572
     78 H34        -1.8190    1.2280    3.1510 hn        1 MOL      0.174983
     79 H35        -1.6930    3.9890    3.0440 h1        1 MOL      0.069580
     80 H36        -2.6030    3.0470    2.0490 h1        1 MOL      0.069580
     81 N9         -0.3150    2.8470    0.3210 n         1 MOL     -0.248944
     82 C25         0.5520    3.2070   -0.8130 c3        1 MOL      0.037085
     83 C26         1.6850    2.2350   -1.0770 c         1 MOL      0.506629
     84 O13         1.4950    1.0140   -0.9780 o         1 MOL     -0.351459
     85 C27        -0.3260    3.4450   -2.0290 c3        1 MOL      0.075217
     86 C28        -1.5780    4.2740   -1.8450 ca        1 MOL     -0.053720
     87 C29        -1.5550    5.6820   -1.6840 ca        1 MOL     -0.159321
     88 C30        -2.7970    3.5600   -1.9110 ca        1 MOL     -0.159321
     89 C31        -2.7030    6.3920   -1.5160 ca        1 MOL     -0.183095
     90 C32        -3.9980    4.2470   -1.6490 ca        1 MOL     -0.183095
     91 C33        -3.9500    5.6530   -1.5040 ca        1 MOL      0.276627
     92 O14        -5.1400    6.3560   -1.4490 oh        1 MOL     -0.522036
     93 H37        -0.5540    1.8750    0.4310 hn        1 MOL      0.123277
     94 H38         0.9600    4.1990   -0.6580 h1        1 MOL      0.046039
     95 H39        -0.5970    2.4700   -2.4370 hc        1 MOL     -0.008832
     96 H40         0.2690    3.9120   -2.8200 hc        1 MOL     -0.008832
     97 H41        -0.5810    6.1240   -1.5710 ha        1 MOL      0.132891
     98 H42        -2.7310    2.4870   -1.9380 ha        1 MOL      0.132891
     99 H43        -2.6440    7.4660   -1.5350 ha        1 MOL      0.149702
    100 H44        -4.9100    3.6760   -1.5950 ha        1 MOL      0.149702
    101 H45        -5.9290    5.8380   -1.2920 ho        1 MOL      0.392050
    102 N10         2.8980    2.6890   -1.3970 n         1 MOL     -0.536093
    103 C34         4.1520    1.9440   -1.5620 c3        1 MOL      0.120171
    104 C35         4.8560    1.8030   -0.2140 c         1 MOL      0.503006
    105 O15         5.0000    0.7100    0.3130 o         1 MOL     -0.460363
    106 C36         5.0630    2.5690   -2.6850 c3        1 MOL      0.066450
    107 C37         4.3130    2.8350   -4.0080 c3        1 MOL      0.104598
    108 C38         6.4710    1.7910   -2.8730 c3        1 MOL     -0.509994
    109 C39         3.7530    1.4740   -4.5700 c3        1 MOL     -0.383101
    110 H46         2.9850    3.6960   -1.4200 hn        1 MOL      0.292173
    111 H47         3.9460    0.9260   -1.9000 h1        1 MOL      0.017644
    112 H48         5.2700    3.5770   -2.3180 hc        1 MOL     -0.045540
    113 H49         4.9510    3.3000   -4.7570 hc        1 MOL      0.010786
    114 H50         3.4860    3.5210   -3.8130 hc        1 MOL      0.010786
    115 H51         6.3810    0.7260   -3.0930 hc        1 MOL      0.153282
    116 H52         7.0420    2.2960   -3.6570 hc        1 MOL      0.153282
    117 H53         7.0290    1.6610   -1.9440 hc        1 MOL      0.153282
    118 H54         3.4190    1.7440   -5.5700 hc        1 MOL      0.111909
    119 H55         4.5910    0.7900   -4.7300 hc        1 MOL      0.111909
    120 H56         2.9790    1.1460   -3.8760 hc        1 MOL      0.111909
    121 N11         5.4190    2.8880    0.3910 n         1 MOL     -0.409810
    122 C40         6.0960    2.8760    1.7070 c3        1 MOL     -0.108160
    123 C41         7.4730    2.1500    1.7170 c         1 MOL      0.593440
    124 O16         7.8800    1.5790    2.6810 o         1 MOL     -0.502644
    125 C42         6.3840    4.3010    2.2710 c3        1 MOL      0.368558
    126 O17         7.4390    5.0040    1.6090 oh        1 MOL     -0.593666
    127 H57         5.3410    3.8000   -0.0360 hn        1 MOL      0.274424
    128 H58         5.5760    2.3210    2.4780 h1        1 MOL      0.058361
    129 H59         6.5870    4.2420    3.3440 h1        1 MOL      0.007844
    130 H60         5.4850    4.9070    2.2590 h1        1 MOL      0.007844
    131 H61         7.0730    5.1750    0.7390 ho        1 MOL      0.370281
    132 N12         8.1550    2.0830    0.5820 n         1 MOL     -0.453848
    133 C43         9.2840    1.0710    0.3780 c3        1 MOL      0.221176
    134 C44         9.0960   -0.2340    0.9640 c         1 MOL      0.613114
    135 O18         9.9250   -0.7390    1.6820 o         1 MOL     -0.544651
    136 C45        10.5940    1.8070    0.7290 c3        1 MOL     -0.425678
    137 H62         7.9450    2.6980   -0.1930 hn        1 MOL      0.228934
    138 H63         9.3840    0.8380   -0.6780 h1        1 MOL      0.044073
    139 H64        11.4590    1.1590    0.6090 hc        1 MOL      0.118793
    140 H65        10.8150    2.6690    0.0870 hc        1 MOL      0.118793
    141 H66        10.5440    2.1280    1.7600 hc        1 MOL      0.118793
    142 N13         8.0100   -0.8530    0.5710 n         1 MOL     -0.696377
    143 C46         7.5190   -2.1900    0.9940 c3        1 MOL      0.618312
    144 C47         6.8780   -2.7690   -0.2380 c         1 MOL      0.336243
    145 O19         6.5270   -2.0470   -1.1350 o         1 MOL     -0.489136
    146 C48         6.6010   -1.9320    2.1830 c3        1 MOL     -0.410171
    147 H67         7.3400   -0.3400    0.0300 hn        1 MOL      0.255887
    148 H68         8.3240   -2.8520    1.3100 h1        1 MOL     -0.053334
    149 H69         6.0820   -2.8520    2.4510 hc        1 MOL      0.104349
    150 H70         7.2140   -1.5730    3.0020 hc        1 MOL      0.104349
    151 H71         5.7980   -1.2690    1.8500 hc        1 MOL      0.104349
    152 N14         6.6690   -4.1430   -0.2500 n         1 MOL     -0.528673
    153 C49         6.3370   -4.9000   -1.4610 c3        1 MOL     -0.053407
    154 C50         7.0800   -4.7110   -2.7590 c         1 MOL      0.387441
    155 O20         6.4910   -5.1430   -3.7740 o         1 MOL     -0.488680
    156 C51         4.8290   -4.7000   -1.7330 c3        1 MOL      0.167906
    157 C52         3.8660   -4.8370   -0.5530 c3        1 MOL     -0.014860
    158 C53         2.5180   -4.7050   -1.2110 c         1 MOL      0.606603
    159 O21         1.9620   -5.7020   -1.5880 o         1 MOL     -0.672710
    160 O22         1.9450   -3.6180   -1.1570 o         1 MOL     -0.672710
    161 H72         6.7790   -4.5760    0.6510 hn        1 MOL      0.305699
    162 H73         6.5230   -5.9480   -1.2070 h1        1 MOL      0.105681
    163 H74         4.4830   -5.5270   -2.3540 hc        1 MOL      0.002385
    164 H75         4.6580   -3.8040   -2.3410 hc        1 MOL      0.002385
    165 H76         4.0120   -4.0270    0.1540 hc        1 MOL     -0.035360
    166 H77         4.0330   -5.8060   -0.0910 hc        1 MOL     -0.035360
    167 N15         8.2890   -4.0900   -2.7530 n         1 MOL     -0.183055
    168 C54         9.1210   -3.8340   -3.9650 c3        1 MOL     -0.219303
    169 H78         8.4730   -3.5600   -4.7980 h1        1 MOL      0.106316
    170 H79         9.8180   -3.0200   -3.7640 h1        1 MOL      0.106316
    171 H80         9.6780   -4.7360   -4.2210 h1        1 MOL      0.106316
    172 H81         8.7040   -4.0000   -1.8310 hn        1 MOL      0.212740
    173 Ca1         0.8090   -1.4010   -0.5430 Ca        1 MOL      1.708858
    174 O23        -0.0390   -3.1210    1.2590 oh        1 MOL     -0.881809
    175 H82        -0.7980   -3.6880    1.1000 ho        1 MOL      0.427871
    176 H83         0.2560   -3.3480    2.1380 ho        1 MOL      0.427871
    177 O24         0.9620   -0.9590   -3.1740 oh        1 MOL     -0.881809
    178 H84         0.6800   -0.2760   -3.7920 ho        1 MOL      0.427871
    179 H85         0.9370   -1.7640   -3.6890 ho        1 MOL      0.427871
    180 O25         3.6260   -1.3310   -0.9410 oh        1 MOL     -0.881809
    181 H86         4.1990   -1.9740   -1.3430 ho        1 MOL      0.427871
    182 H87         4.2170   -0.7060   -0.5210 ho        1 MOL      0.427871
    183 O26        -1.1920   -3.0660   -1.3600 oh        1 MOL     -0.881809
    184 H88        -0.9550   -3.9980   -1.3730 ho        1 MOL      0.427871
    185 H89        -2.1200   -3.0640   -1.6350 ho        1 MOL      0.427871
@<TRIPOS>BOND
     1    1    2 1   
     2    1    4 1   
     3    1    5 1   
     4    1    6 1   
     5    2    3 2   
     6    2    7 1   
     7    7    8 1   
     8    7   15 1   
     9    8    9 1   
    10    8   11 1   
    11    8   16 1   
    12    9   10 2   
    13    9   19 1   
    14   11   12 1   
    15   11   17 1   
    16   11   18 1   
    17   12   13 1   
    18   12   14 1   
    19   19   20 1   
    20   19   28 1   
    21   20   21 1   
    22   20   23 1   
    23   20   29 1   
    24   21   22 2   
    25   21   41 1   
    26   23   24 1   
    27   23   30 1   
    28   23   31 1   
    29   24   25 1   
    30   24   32 1   
    31   24   33 1   
    32   25   26 1   
    33   25   34 1   
    34   25   35 1   
    35   26   27 1   
    36   26   36 1   
    37   26   37 1   
    38   27   38 1   
    39   27   39 1   
    40   27   40 1   
    41   41   42 1   
    42   41   49 1   
    43   42   43 1   
    44   42   45 1   
    45   42   50 1   
    46   43   44 2   
    47   43   53 1   
    48   45   46 1   
    49   45   51 1   
    50   45   52 1   
    51   46   47 1   
    52   46   48 1   
    53   53   54 1   
    54   53   57 1   
    55   54   55 1   
    56   54   58 1   
    57   54   59 1   
    58   55   56 2   
    59   55   60 1   
    60   60   61 1   
    61   60   68 1   
    62   61   62 1   
    63   61   64 1   
    64   61   69 1   
    65   62   63 2   
    66   62   74 1   
    67   64   65 1   
    68   64   70 1   
    69   64   71 1   
    70   65   66 1   
    71   65   67 2   
    72   66   72 1   
    73   66   73 1   
    74   74   75 1   
    75   74   78 1   
    76   75   76 1   
    77   75   79 1   
    78   75   80 1   
    79   76   77 2   
    80   76   81 1   
    81   81   82 1   
    82   81   93 1   
    83   82   83 1   
    84   82   85 1   
    85   82   94 1   
    86   83   84 2   
    87   83  102 1   
    88   85   86 1   
    89   85   95 1   
    90   85   96 1   
    91   86   87 ar  
    92   86   88 ar  
    93   87   89 ar  
    94   87   97 1   
    95   88   90 ar  
    96   88   98 1   
    97   89   91 ar  
    98   89   99 1   
    99   90   91 ar  
   100   90  100 1   
   101   91   92 1   
   102   92  101 1   
   103  102  103 1   
   104  102  110 1   
   105  103  104 1   
   106  103  106 1   
   107  103  111 1   
   108  104  105 2   
   109  104  121 1   
   110  106  107 1   
   111  106  108 1   
   112  106  112 1   
   113  107  109 1   
   114  107  113 1   
   115  107  114 1   
   116  108  115 1   
   117  108  116 1   
   118  108  117 1   
   119  109  118 1   
   120  109  119 1   
   121  109  120 1   
   122  121  122 1   
   123  121  127 1   
   124  122  123 1   
   125  122  125 1   
   126  122  128 1   
   127  123  124 2   
   128  123  132 1   
   129  125  126 1   
   130  125  129 1   
   131  125  130 1   
   132  126  131 1   
   133  132  133 1   
   134  132  137 1   
   135  133  134 1   
   136  133  136 1   
   137  133  138 1   
   138  134  135 2   
   139  134  142 1   
   140  136  139 1   
   141  136  140 1   
   142  136  141 1   
   143  142  143 1   
   144  142  147 1   
   145  143  144 1   
   146  143  146 1   
   147  143  148 1   
   148  144  145 2   
   149  144  152 1   
   150  146  149 1   
   151  146  150 1   
   152  146  151 1   
   153  152  153 1   
   154  152  161 1   
   155  153  154 1   
   156  153  156 1   
   157  153  162 1   
   158  154  155 2   
   159  154  167 1   
   160  156  157 1   
   161  156  163 1   
   162  156  164 1   
   163  157  158 1   
   164  157  165 1   
   165  157  166 1   
   166  158  159 1   
   167  158  160 1   
   168  167  168 1   
   169  167  172 1   
   170  168  169 1   
   171  168  170 1   
   172  168  171 1   
   173  174  175 1   
   174  174  176 1   
   175  177  178 1   
   176  177  179 1   
   177  180  181 1   
   178  180  182 1   
   179  183  184 1   
   180  183  185 1   
@<TRIPOS>SUBSTRUCTURE
     1 MOL         1 TEMP              0 ****  ****    0 ROOT
