@<TRIPOS>MOLECULE
MOL
  198   191     1     0     0
SMALL
resp


@<TRIPOS>ATOM
      1 C1          3.5820    4.5370    2.4840 c3        1 MOL      0.082575
      2 C2          2.4760    4.9830    1.5680 c         1 MOL      0.591403
      3 O1          1.9540    4.1580    0.8420 o         1 MOL     -0.508365
      4 H1          3.2860    4.7080    3.5190 hc        1 MOL     -0.057606
      5 H2          3.7740    3.4750    2.3310 hc        1 MOL     -0.057606
      6 H3          4.4860    5.1060    2.2670 hc        1 MOL     -0.057606
      7 N1          2.1430    6.3110    1.4740 n         1 MOL     -0.610306
      8 C3          1.1730    6.8300    0.5560 c3        1 MOL      0.098502
      9 C4         -0.2110    6.1320    0.8240 c         1 MOL      0.365113
     10 O2         -0.9150    5.8660   -0.1290 o         1 MOL     -0.399210
     11 C5          1.5550    6.7220   -0.8950 c3        1 MOL     -0.154696
     12 C6          0.7640    7.5260   -1.9030 c         1 MOL      0.484790
     13 O3          1.0470    7.2350   -3.1140 o         1 MOL     -0.604718
     14 O4         -0.2080    8.2900   -1.6000 o         1 MOL     -0.604718
     15 H4          2.5220    6.9430    2.1560 hn        1 MOL      0.314842
     16 H5          1.1460    7.9110    0.6930 h1        1 MOL      0.080044
     17 H6          1.6440    5.6790   -1.2110 hc        1 MOL      0.068945
     18 H7          2.5330    7.1870   -0.9820 hc        1 MOL      0.068945
     19 N2         -0.5820    5.8730    2.0540 n         1 MOL     -0.295434
     20 C7         -1.9150    5.4690    2.4550 c3        1 MOL     -0.282173
     21 C8         -2.9630    6.5000    1.9450 c         1 MOL      0.760942
     22 O5         -2.8260    7.7260    2.0500 o         1 MOL     -0.606977
     23 C9         -1.9750    5.1340    3.9280 c3        1 MOL      0.232331
     24 C10        -1.4750    6.3460    4.7680 c3        1 MOL      0.314777
     25 C11        -1.3800    3.7750    4.2680 c3        1 MOL     -0.107259
     26 C12        -2.2220    6.1680    6.0840 c3        1 MOL     -0.370533
     27 H8          0.0210    6.1480    2.8210 hn        1 MOL      0.177080
     28 H9         -1.9820    4.5730    1.8370 h1        1 MOL      0.189630
     29 H10        -3.0540    5.0140    4.0380 hc        1 MOL     -0.011271
     30 H11        -1.6590    7.3090    4.2930 hc        1 MOL     -0.079073
     31 H12        -0.3940    6.3380    4.9150 hc        1 MOL     -0.079073
     32 H13        -1.5920    2.9980    3.5210 hc        1 MOL      0.024138
     33 H14        -0.2980    3.8570    4.2530 hc        1 MOL      0.024138
     34 H15        -1.7080    3.3610    5.2090 hc        1 MOL      0.024138
     35 H16        -3.3060    6.1730    5.9500 hc        1 MOL      0.061413
     36 H17        -1.9200    5.1680    6.3860 hc        1 MOL      0.061413
     37 H18        -2.0280    6.9900    6.7650 hc        1 MOL      0.061413
     38 N3         -4.0650    6.0290    1.3800 n         1 MOL     -0.664187
     39 C13        -4.5480    4.6860    0.9540 c3        1 MOL      0.029868
     40 C14        -5.3830    4.8480   -0.3160 c         1 MOL      0.640442
     41 O6         -6.4940    5.4390   -0.1980 o         1 MOL     -0.576475
     42 C15        -5.3110    3.9790    2.0480 c3        1 MOL     -0.029616
     43 C16        -5.9200    2.7270    1.5480 c         1 MOL      0.649269
     44 O7         -6.9600    2.3760    2.1480 o         1 MOL     -0.676489
     45 O8         -5.3660    2.0330    0.6110 o         1 MOL     -0.676489
     46 H19        -4.5510    6.8160    0.9700 hn        1 MOL      0.333295
     47 H20        -3.6740    4.0490    0.7840 h1        1 MOL      0.015896
     48 H21        -6.1760    4.5240    2.4420 hc        1 MOL      0.007545
     49 H22        -4.6820    3.7200    2.8880 hc        1 MOL      0.007545
     50 N4         -4.9300    4.4020   -1.4320 n         1 MOL     -0.380385
     51 C17        -5.5770    4.3860   -2.7190 c3        1 MOL     -0.082649
     52 C18        -6.2350    3.0940   -3.1780 c         1 MOL      0.595743
     53 O9         -6.9960    3.0040   -4.1060 o         1 MOL     -0.621966
     54 H23        -4.0160    3.9830   -1.4230 hn        1 MOL      0.302024
     55 H24        -4.8650    4.5960   -3.5160 h1        1 MOL      0.073497
     56 H25        -6.2850    5.1940   -2.8900 h1        1 MOL      0.073497
     57 N5         -5.8750    2.0600   -2.5040 n         1 MOL     -0.312687
     58 C19        -6.1630    0.6720   -2.8980 c3        1 MOL      0.173490
     59 C20        -7.1250   -0.0290   -1.9430 c         1 MOL      0.380505
     60 O10        -8.2280   -0.5080   -2.3250 o         1 MOL     -0.577723
     61 C21        -4.9620   -0.2900   -3.1650 c3        1 MOL     -0.253882
     62 C22        -3.9230   -0.2860   -2.0390 c         1 MOL      0.688430
     63 O11        -3.9330   -1.2230   -1.1930 o         1 MOL     -0.633259
     64 O12        -3.0060    0.5670   -1.9600 o         1 MOL     -0.633259
     65 H26        -5.2880    2.1700   -1.6840 hn        1 MOL      0.134360
     66 H27        -6.6710    0.6640   -3.8640 h1        1 MOL      0.055774
     67 H28        -4.6200    0.0120   -4.1530 hc        1 MOL      0.047971
     68 H29        -5.3690   -1.2920   -3.2340 hc        1 MOL      0.047971
     69 N6         -6.7640   -0.0830   -0.6640 n         1 MOL     -0.130079
     70 C23        -7.4620   -0.9550    0.3040 c3        1 MOL     -0.385200
     71 C24        -7.1510   -2.4550    0.0630 c         1 MOL      0.530021
     72 O13        -7.8520   -3.3080    0.6290 o         1 MOL     -0.632732
     73 H30        -5.8670    0.3040   -0.4080 hn        1 MOL      0.271896
     74 H31        -8.5310   -0.7790    0.1860 h1        1 MOL      0.175388
     75 H32        -7.1280   -0.7760    1.3170 h1        1 MOL      0.175388
     76 N7         -6.1390   -2.8130   -0.6720 n         1 MOL      0.049031
     77 C25        -5.7670   -4.2300   -0.9550 c3        1 MOL     -0.014477
     78 C26        -5.3270   -5.1030    0.2460 c         1 MOL      0.444866
     79 O14        -5.3040   -6.3550    0.1550 o         1 MOL     -0.536250
     80 C27        -6.7350   -4.8190   -1.9840 c3        1 MOL      0.031488
     81 C28        -6.6160   -4.0880   -3.3490 c3        1 MOL     -0.052740
     82 C29        -7.1660   -4.8310   -4.4960 c         1 MOL      0.638385
     83 N8         -8.4000   -4.5890   -4.8790 n         1 MOL     -0.805851
     84 O15        -6.5500   -5.6710   -5.1110 o         1 MOL     -0.586618
     85 H33        -5.5950   -2.0280   -0.9940 hn        1 MOL     -0.040441
     86 H34        -4.8690   -4.2280   -1.5850 h1        1 MOL      0.097295
     87 H35        -7.7760   -4.8260   -1.6540 hc        1 MOL      0.002020
     88 H36        -6.3620   -5.8240   -2.1650 hc        1 MOL      0.002020
     89 H37        -5.5750   -4.0180   -3.6700 hc        1 MOL      0.014228
     90 H38        -6.9660   -3.0590   -3.2390 hc        1 MOL      0.014228
     91 H39        -8.9490   -3.8930   -4.3920 hn        1 MOL      0.352924
     92 H40        -8.8230   -5.1710   -5.5870 hn        1 MOL      0.352924
     93 N9         -4.8900   -4.5040    1.3590 n         1 MOL     -0.294329
     94 C30        -4.3780   -5.1710    2.6090 c3        1 MOL     -0.121147
     95 C31        -2.9470   -4.8670    2.9920 c         1 MOL      0.472078
     96 O16        -2.4620   -5.3010    4.0370 o         1 MOL     -0.555169
     97 C32        -5.2660   -4.8470    3.8090 c3        1 MOL      0.499856
     98 C33        -5.2200   -3.4010    4.2630 c3        1 MOL     -0.368747
     99 C34        -6.6940   -5.2990    3.5530 c3        1 MOL     -0.368747
    100 H41        -4.9500   -3.5030    1.3740 hn        1 MOL      0.217285
    101 H42        -4.4710   -6.2220    2.3550 h1        1 MOL      0.108174
    102 H43        -4.9820   -5.5310    4.6000 hc        1 MOL     -0.081287
    103 H44        -6.0400   -3.3320    4.9910 hc        1 MOL      0.072961
    104 H45        -4.2950   -3.1970    4.7900 hc        1 MOL      0.072961
    105 H46        -5.4210   -2.7910    3.3870 hc        1 MOL      0.072961
    106 H47        -7.1690   -4.8110    2.7010 hc        1 MOL      0.072961
    107 H48        -6.5560   -6.3670    3.3660 hc        1 MOL      0.072961
    108 H49        -7.3160   -5.1980    4.4420 hc        1 MOL      0.072961
    109 N10        -2.1910   -4.0340    2.2100 n         1 MOL     -0.400298
    110 C35        -0.7890   -3.7200    2.4640 c3        1 MOL      0.368255
    111 C36         0.0140   -3.8630    1.1530 c         1 MOL      0.369440
    112 O17        -0.5890   -3.7180    0.0690 o         1 MOL     -0.496111
    113 C37        -0.7030   -2.3440    3.0270 c3        1 MOL     -0.452693
    114 C38         0.6020   -2.0530    3.8490 c         1 MOL      0.668484
    115 N11         0.9420   -0.7840    3.7210 n         1 MOL     -0.810131
    116 O18         1.2340   -2.8910    4.4650 o         1 MOL     -0.552240
    117 H50        -2.5330   -3.7090    1.3120 hn        1 MOL      0.214677
    118 H51        -0.3910   -4.4480    3.1690 h1        1 MOL      0.014052
    119 H52        -1.4170   -2.2550    3.8520 hc        1 MOL      0.150652
    120 H53        -0.9930   -1.6060    2.2840 hc        1 MOL      0.150652
    121 H54         0.3680   -0.3140    3.0320 hn        1 MOL      0.376137
    122 H55         1.7710   -0.5040    4.2340 hn        1 MOL      0.376137
    123 N12         1.3130   -3.8720    1.2140 n         1 MOL     -0.331978
    124 C39         2.2610   -3.8830    0.1610 c3        1 MOL      0.018547
    125 C40         3.6890   -4.2140    0.6970 c         1 MOL      0.569506
    126 O19         4.0280   -4.0230    1.8690 o         1 MOL     -0.519932
    127 C41         2.2200   -2.3970   -0.5440 c3        1 MOL     -0.367300
    128 C42         2.5900   -2.4940   -1.9800 ca        1 MOL      0.158177
    129 C43         3.9120   -2.3460   -2.4390 ca        1 MOL     -0.226209
    130 C44         1.5730   -2.8760   -2.8480 ca        1 MOL     -0.226209
    131 C45         4.1480   -2.5490   -3.7700 ca        1 MOL     -0.175319
    132 C46         1.7880   -3.1140   -4.1840 ca        1 MOL     -0.175319
    133 C47         3.1230   -2.9270   -4.6530 ca        1 MOL      0.238507
    134 O20         3.3790   -2.9800   -6.0030 oh        1 MOL     -0.467824
    135 H56         1.7080   -4.1180    2.1180 hn        1 MOL      0.225590
    136 H57         1.9570   -4.6260   -0.5720 h1        1 MOL      0.107935
    137 H58         2.7840   -1.6250   -0.0160 hc        1 MOL      0.159514
    138 H59         1.1880   -2.0560   -0.5340 hc        1 MOL      0.159514
    139 H60         4.6700   -1.8750   -1.8170 ha        1 MOL      0.186489
    140 H61         0.5550   -2.9080   -2.4770 ha        1 MOL      0.186489
    141 H62         5.1140   -2.4490   -4.2380 ha        1 MOL      0.143732
    142 H63         0.9560   -3.3280   -4.8450 ha        1 MOL      0.143732
    143 H64         4.2550   -2.5910   -6.1050 ho        1 MOL      0.325605
    144 N13         4.4810   -4.7580   -0.2270 n         1 MOL     -0.484215
    145 C48         5.8910   -5.0580   -0.0560 c3        1 MOL      0.183305
    146 C49         6.8060   -4.0710   -0.8390 c         1 MOL      0.561312
    147 O21         7.1310   -4.2510   -2.0300 o         1 MOL     -0.596249
    148 C50         6.2160   -6.5100   -0.4900 c3        1 MOL      0.082920
    149 C51         5.6080   -7.5550    0.4440 c3        1 MOL     -0.215182
    150 C52         5.9990   -8.9810    0.0510 c         1 MOL      0.698335
    151 O22         6.0870   -9.2190   -1.1970 o         1 MOL     -0.695741
    152 O23         6.2600   -9.8140    0.9420 o         1 MOL     -0.695741
    153 H65         4.1450   -4.7480   -1.1790 hn        1 MOL      0.301197
    154 H66         6.0840   -4.9260    1.0020 h1        1 MOL      0.034951
    155 H67         7.3040   -6.5080   -0.5610 hc        1 MOL     -0.003024
    156 H68         5.8080   -6.5270   -1.5060 hc        1 MOL     -0.003024
    157 H69         4.5440   -7.3120    0.4990 hc        1 MOL      0.024982
    158 H70         6.0410   -7.3530    1.4220 hc        1 MOL      0.024982
    159 N14         7.0780   -2.8770   -0.2810 n         1 MOL     -0.641595
    160 C53         6.5770   -2.2090    0.9990 c3        1 MOL     -0.069753
    161 C54         7.1450   -2.8130    2.2900 c         1 MOL      0.655354
    162 O24         8.2820   -3.2200    2.4300 o         1 MOL     -0.562822
    163 C55         6.9700   -0.6960    0.9180 c3        1 MOL     -0.328257
    164 C56         6.3070    0.0060   -0.2690 c3        1 MOL      0.326419
    165 C57         6.6590    1.5580   -0.2140 c         1 MOL      0.816331
    166 O25         7.7490    1.9840   -0.6160 o         1 MOL     -0.826691
    167 O26         5.7490    2.3590    0.0270 o         1 MOL     -0.826691
    168 H71         7.7910   -2.4600   -0.8490 hn        1 MOL      0.372451
    169 H72         5.5020   -2.3090    1.1440 h1        1 MOL      0.104868
    170 H73         8.0440   -0.5690    0.8390 hc        1 MOL      0.083983
    171 H74         6.7170   -0.1640    1.8320 hc        1 MOL      0.083983
    172 H75         5.2640   -0.2840   -0.3570 hc        1 MOL     -0.083600
    173 H76         6.7410   -0.3710   -1.1940 hc        1 MOL     -0.083600
    174 N15         6.3550   -2.7820    3.3760 n         1 MOL     -0.325132
    175 C58         6.6250   -3.2610    4.7250 c3        1 MOL     -0.243182
    176 H77         6.0260   -2.6940    5.4380 h1        1 MOL      0.109012
    177 H78         6.3670   -4.3170    4.7950 h1        1 MOL      0.109012
    178 H79         7.6820   -3.1290    4.9540 h1        1 MOL      0.109012
    179 H80         5.3880   -2.5290    3.2140 hn        1 MOL      0.244900
    180 Ca1         6.6160    4.4380   -1.3150 Ca        1 MOL      1.756180
    181 O27         5.7490    5.5220   -3.9010 oh        1 MOL     -0.839526
    182 H81         4.9890    5.0740   -4.2650 ho        1 MOL      0.389705
    183 H82         6.3620    5.6000   -4.6290 ho        1 MOL      0.389705
    184 O28         6.6060    2.5600   -3.2370 oh        1 MOL     -0.839526
    185 H83         6.0970    1.8060   -3.5430 ho        1 MOL      0.389705
    186 H84         7.3650    2.5860   -3.8190 ho        1 MOL      0.389705
    187 O29         8.8510    4.5810    0.0370 oh        1 MOL     -0.839526
    188 H85         9.1710    5.4580    0.2300 ho        1 MOL      0.389705
    189 H86         9.4190    4.0000    0.5570 ho        1 MOL      0.389705
    190 O30         6.3870    7.2280   -1.2290 oh        1 MOL     -0.839526
    191 H87         5.8200    7.6670   -0.5860 ho        1 MOL      0.389705
    192 H88         6.4240    7.8310   -1.9600 ho        1 MOL      0.389705
    193 O31         8.4890    5.0970   -3.2860 oh        1 MOL     -0.839526
    194 H89         9.0340    4.5320   -3.8310 ho        1 MOL      0.389705
    195 H90         8.8520    5.9790   -3.4090 ho        1 MOL      0.389705
    196 O32         3.7940    4.1260   -1.7490 oh        1 MOL     -0.839526
    197 H91         3.4080    3.7730   -0.9370 ho        1 MOL      0.389705
    198 H92         3.0560    4.1480   -2.3640 ho        1 MOL      0.389705
@<TRIPOS>BOND
     1    1    2 1   
     2    1    4 1   
     3    1    5 1   
     4    1    6 1   
     5    2    3 2   
     6    2    7 1   
     7    7    8 1   
     8    7   15 1   
     9    8    9 1   
    10    8   11 1   
    11    8   16 1   
    12    9   10 2   
    13    9   19 1   
    14   11   12 1   
    15   11   17 1   
    16   11   18 1   
    17   12   13 1   
    18   12   14 1   
    19   19   20 1   
    20   19   27 1   
    21   20   21 1   
    22   20   23 1   
    23   20   28 1   
    24   21   22 2   
    25   21   38 1   
    26   23   24 1   
    27   23   25 1   
    28   23   29 1   
    29   24   26 1   
    30   24   30 1   
    31   24   31 1   
    32   25   32 1   
    33   25   33 1   
    34   25   34 1   
    35   26   35 1   
    36   26   36 1   
    37   26   37 1   
    38   38   39 1   
    39   38   46 1   
    40   39   40 1   
    41   39   42 1   
    42   39   47 1   
    43   40   41 2   
    44   40   50 1   
    45   42   43 1   
    46   42   48 1   
    47   42   49 1   
    48   43   44 1   
    49   43   45 1   
    50   50   51 1   
    51   50   54 1   
    52   51   52 1   
    53   51   55 1   
    54   51   56 1   
    55   52   53 2   
    56   52   57 1   
    57   57   58 1   
    58   57   65 1   
    59   58   59 1   
    60   58   61 1   
    61   58   66 1   
    62   59   60 2   
    63   59   69 1   
    64   61   62 1   
    65   61   67 1   
    66   61   68 1   
    67   62   63 1   
    68   62   64 1   
    69   69   70 1   
    70   69   73 1   
    71   70   71 1   
    72   70   74 1   
    73   70   75 1   
    74   71   72 2   
    75   71   76 1   
    76   76   77 1   
    77   76   85 1   
    78   77   78 1   
    79   77   80 1   
    80   77   86 1   
    81   78   79 2   
    82   78   93 1   
    83   80   81 1   
    84   80   87 1   
    85   80   88 1   
    86   81   82 1   
    87   81   89 1   
    88   81   90 1   
    89   82   83 1   
    90   82   84 2   
    91   83   91 1   
    92   83   92 1   
    93   93   94 1   
    94   93  100 1   
    95   94   95 1   
    96   94   97 1   
    97   94  101 1   
    98   95   96 2   
    99   95  109 1   
   100   97   98 1   
   101   97   99 1   
   102   97  102 1   
   103   98  103 1   
   104   98  104 1   
   105   98  105 1   
   106   99  106 1   
   107   99  107 1   
   108   99  108 1   
   109  109  110 1   
   110  109  117 1   
   111  110  111 1   
   112  110  113 1   
   113  110  118 1   
   114  111  112 2   
   115  111  123 1   
   116  113  114 1   
   117  113  119 1   
   118  113  120 1   
   119  114  115 1   
   120  114  116 2   
   121  115  121 1   
   122  115  122 1   
   123  123  124 1   
   124  123  135 1   
   125  124  125 1   
   126  124  127 1   
   127  124  136 1   
   128  125  126 2   
   129  125  144 1   
   130  127  128 1   
   131  127  137 1   
   132  127  138 1   
   133  128  129 ar  
   134  128  130 ar  
   135  129  131 ar  
   136  129  139 1   
   137  130  132 ar  
   138  130  140 1   
   139  131  133 ar  
   140  131  141 1   
   141  132  133 ar  
   142  132  142 1   
   143  133  134 1   
   144  134  143 1   
   145  144  145 1   
   146  144  153 1   
   147  145  146 1   
   148  145  148 1   
   149  145  154 1   
   150  146  147 2   
   151  146  159 1   
   152  148  149 1   
   153  148  155 1   
   154  148  156 1   
   155  149  150 1   
   156  149  157 1   
   157  149  158 1   
   158  150  151 1   
   159  150  152 1   
   160  159  160 1   
   161  159  168 1   
   162  160  161 1   
   163  160  163 1   
   164  160  169 1   
   165  161  162 2   
   166  161  174 1   
   167  163  164 1   
   168  163  170 1   
   169  163  171 1   
   170  164  165 1   
   171  164  172 1   
   172  164  173 1   
   173  165  166 1   
   174  165  167 1   
   175  174  175 1   
   176  174  179 1   
   177  175  176 1   
   178  175  177 1   
   179  175  178 1   
   180  181  182 1   
   181  181  183 1   
   182  184  185 1   
   183  184  186 1   
   184  187  188 1   
   185  187  189 1   
   186  190  191 1   
   187  190  192 1   
   188  193  194 1   
   189  193  195 1   
   190  196  197 1   
   191  196  198 1   
@<TRIPOS>SUBSTRUCTURE
     1 MOL         1 TEMP              0 ****  ****    0 ROOT
