@<TRIPOS>MOLECULE
MOL
  188   182     1     0     0
SMALL
resp


@<TRIPOS>ATOM
      1 C1         -6.3370    0.4330    3.8780 c3        1 MOL     -0.346634
      2 C2         -6.4510   -0.4220    2.6450 c         1 MOL      0.702067
      3 O1         -5.5900   -0.2210    1.8200 o         1 MOL     -0.587038
      4 H1         -7.1730    1.1330    3.9130 hc        1 MOL      0.083066
      5 H2         -6.3600   -0.2020    4.7640 hc        1 MOL      0.083066
      6 H3         -5.4000    0.9880    3.8510 hc        1 MOL      0.083066
      7 N1         -7.4060   -1.3200    2.4930 n         1 MOL     -0.585963
      8 C3         -7.7410   -2.0870    1.1860 c3        1 MOL      0.206676
      9 C4         -7.8860   -1.2430   -0.0450 c         1 MOL      0.391746
     10 O2         -7.7650   -1.7210   -1.1790 o         1 MOL     -0.431107
     11 C5         -6.6890   -3.2600    0.9410 c3        1 MOL     -0.183102
     12 C6         -7.3760   -4.5490    0.4750 c         1 MOL      0.647526
     13 O3         -6.6540   -5.5310    0.1900 o         1 MOL     -0.635491
     14 O4         -8.6260   -4.6370    0.4720 o         1 MOL     -0.635491
     15 H4         -7.8810   -1.5460    3.3640 hn        1 MOL      0.319125
     16 H5         -8.6960   -2.5280    1.4440 h1        1 MOL      0.041047
     17 H6         -6.1630   -3.3830    1.8970 hc        1 MOL      0.057672
     18 H7         -5.8810   -2.8720    0.3100 hc        1 MOL      0.057672
     19 N2         -8.3510    0.0400    0.1460 n         1 MOL     -0.332840
     20 C7         -8.5310    1.0810   -0.8710 c3        1 MOL     -0.238530
     21 C8         -7.2260    1.4490   -1.6130 c         1 MOL      0.588200
     22 O5         -7.2590    2.1030   -2.6530 o         1 MOL     -0.567205
     23 C9         -9.4920    2.1300   -0.3410 c3        1 MOL      0.066453
     24 C10        -8.8320    3.0660    0.6890 c3        1 MOL      0.034946
     25 C11        -9.7950    4.1840    1.1630 c3        1 MOL     -0.176302
     26 C12       -10.0820    5.3020    0.0680 c3        1 MOL      0.153313
     27 N3        -10.2760    6.5640    0.7420 n4        1 MOL     -0.216043
     28 H8         -8.3090    0.3010    1.1210 hn        1 MOL      0.168556
     29 H9         -9.1030    0.6250   -1.6750 h1        1 MOL      0.178570
     30 H10       -10.2930    1.6130    0.1790 hc        1 MOL      0.032380
     31 H11       -10.0180    2.6100   -1.1680 hc        1 MOL      0.032380
     32 H12        -8.0200    3.5820    0.1880 hc        1 MOL      0.024145
     33 H13        -8.3560    2.4360    1.4410 hc        1 MOL      0.024145
     34 H14        -9.3490    4.7500    1.9740 hc        1 MOL      0.055116
     35 H15       -10.8090    3.8460    1.3630 hc        1 MOL      0.055116
     36 H16       -10.9430    4.9810   -0.5200 hx        1 MOL      0.047004
     37 H17        -9.2700    5.3920   -0.6530 hx        1 MOL      0.047004
     38 H18       -10.5040    7.3580    0.1690 hn        1 MOL      0.205812
     39 H19       -11.0580    6.4940    1.3750 hn        1 MOL      0.205812
     40 H20        -9.4710    6.9240    1.2410 hn        1 MOL      0.205812
     41 N4         -6.0600    1.1370   -1.0570 n         1 MOL     -0.321933
     42 C13        -4.7720    1.6630   -1.6130 c3        1 MOL     -0.107514
     43 C14        -4.3240    1.0230   -2.9410 c         1 MOL      0.584772
     44 O6         -4.5620   -0.1390   -3.1900 o         1 MOL     -0.450363
     45 C15        -3.7720    1.2530   -0.5100 c3        1 MOL      0.074198
     46 C16        -2.3330    1.6120   -0.8490 c         1 MOL      0.602721
     47 O7         -1.6660    2.4780   -0.2670 o         1 MOL     -0.760896
     48 O8         -1.7170    0.7900   -1.5480 o         1 MOL     -0.760896
     49 H21        -6.0880    0.6610   -0.1710 hn        1 MOL      0.211724
     50 H22        -4.7410    2.7390   -1.7830 h1        1 MOL      0.035828
     51 H23        -3.8710    0.2000   -0.2800 hc        1 MOL      0.036852
     52 H24        -4.0530    1.8430    0.3630 hc        1 MOL      0.036852
     53 N5         -3.4350    1.7630   -3.6870 n         1 MOL     -0.376827
     54 C17        -3.1120    1.3500   -5.0770 c3        1 MOL     -0.360231
     55 C18        -2.2250    0.0450   -5.2220 c         1 MOL      0.614236
     56 O9         -2.1160   -0.4620   -6.3360 o         1 MOL     -0.536184
     57 H25        -3.2110    2.6880   -3.3640 hn        1 MOL      0.295740
     58 H26        -2.6940    2.1830   -5.6400 h1        1 MOL      0.168756
     59 H27        -4.0830    1.0590   -5.4710 h1        1 MOL      0.168756
     60 N6         -1.5970   -0.3850   -4.0880 n         1 MOL     -0.443937
     61 C19        -0.9340   -1.6960   -4.0070 c3        1 MOL      0.016694
     62 C20        -1.3820   -2.5350   -2.7870 c         1 MOL      0.465311
     63 O10        -0.6570   -3.4250   -2.4220 o         1 MOL     -0.515746
     64 C21         0.6070   -1.6550   -4.2040 c3        1 MOL     -0.331659
     65 C22         1.3880   -1.0810   -3.0360 c         1 MOL      0.792419
     66 N7          2.7530   -1.1300   -2.9740 n         1 MOL     -0.995079
     67 O11         0.8300   -0.5470   -2.1070 o         1 MOL     -0.613020
     68 H28        -1.6700    0.2320   -3.2910 hn        1 MOL      0.272158
     69 H29        -1.3250   -2.3130   -4.8120 h1        1 MOL      0.144395
     70 H30         0.7660   -1.0200   -5.0660 hc        1 MOL      0.126678
     71 H31         1.0360   -2.6560   -4.2870 hc        1 MOL      0.126678
     72 H32         3.2430   -1.6360   -3.7020 hn        1 MOL      0.408300
     73 H33         3.2190   -0.9360   -2.1070 hn        1 MOL      0.408300
     74 N8         -2.4620   -2.2470   -2.0450 n         1 MOL     -0.190553
     75 C23        -3.1260   -3.1460   -1.0990 c3        1 MOL     -0.077037
     76 C24        -2.6060   -3.1170    0.3610 c         1 MOL      0.508634
     77 O12        -2.6730   -4.1020    1.0630 o         1 MOL     -0.494747
     78 H34        -2.9290   -1.4180   -2.3820 hn        1 MOL      0.157829
     79 H35        -2.9730   -4.1760   -1.4230 h1        1 MOL      0.102773
     80 H36        -4.2200   -3.0340   -1.1770 h1        1 MOL      0.102773
     81 N9         -1.9660   -1.9540    0.6900 n         1 MOL     -0.436686
     82 C25        -1.3590   -1.6920    1.9760 c3        1 MOL      0.097644
     83 C26        -0.0360   -0.9850    1.6820 c         1 MOL      0.360478
     84 O13         0.1260   -0.2170    0.6980 o         1 MOL     -0.491592
     85 C27        -2.3250   -0.8410    2.8410 c3        1 MOL     -0.038700
     86 C28        -1.5290    0.0650    3.9100 ca        1 MOL     -0.035735
     87 C29        -1.2570   -0.4390    5.1440 ca        1 MOL     -0.123591
     88 C30        -1.4280    1.4140    3.6420 ca        1 MOL     -0.123591
     89 C31        -0.6410    0.3210    6.1350 ca        1 MOL     -0.276520
     90 C32        -0.7970    2.2360    4.6030 ca        1 MOL     -0.276520
     91 C33        -0.4360    1.6870    5.8910 ca        1 MOL      0.336663
     92 O14         0.0190    2.5830    6.8490 oh        1 MOL     -0.480497
     93 H37        -1.8770   -1.2620   -0.0410 hn        1 MOL      0.294350
     94 H38        -1.1320   -2.6080    2.5260 h1        1 MOL      0.046293
     95 H39        -2.8880   -1.5990    3.3890 hc        1 MOL      0.071733
     96 H40        -3.0430   -0.2350    2.2880 hc        1 MOL      0.071733
     97 H41        -1.4640   -1.4680    5.3810 ha        1 MOL      0.130393
     98 H42        -1.8030    1.7940    2.7010 ha        1 MOL      0.130393
     99 H43        -0.3790   -0.0380    7.1160 ha        1 MOL      0.162664
    100 H44        -0.7220    3.2750    4.3380 ha        1 MOL      0.162664
    101 H45        -0.2630    3.4650    6.5820 ho        1 MOL      0.351563
    102 N10         0.9430   -1.3280    2.5330 n         1 MOL     -0.106476
    103 C34         2.3280   -0.9290    2.3160 c3        1 MOL     -0.171538
    104 C35         2.9030   -1.7300    1.0950 c         1 MOL      0.361128
    105 O15         3.5840   -1.1260    0.3190 o         1 MOL     -0.421463
    106 C36         3.1690   -1.0650    3.5690 c3        1 MOL     -0.037527
    107 C37         2.5680   -0.3180    4.8070 c3        1 MOL      0.051439
    108 C38         4.6040   -0.6460    3.1860 c3        1 MOL     -0.169983
    109 C39         2.5410    1.2100    4.7020 c3        1 MOL     -0.042490
    110 H46         0.7140   -2.0060    3.2460 hn        1 MOL      0.191477
    111 H47         2.2000    0.1310    2.0650 h1        1 MOL      0.112520
    112 H48         3.2720   -2.1230    3.7980 hc        1 MOL      0.014066
    113 H49         3.1180   -0.6230    5.7040 hc        1 MOL      0.023303
    114 H50         1.5680   -0.6880    5.0490 hc        1 MOL      0.023303
    115 H51         4.4930    0.3600    2.7770 hc        1 MOL      0.071937
    116 H52         5.2070   -0.4990    4.0800 hc        1 MOL      0.071937
    117 H53         5.1100   -1.3570    2.5260 hc        1 MOL      0.071937
    118 H54         3.4550    1.6900    4.3570 hc        1 MOL     -0.000639
    119 H55         1.7120    1.4650    4.0480 hc        1 MOL     -0.000639
    120 H56         2.2000    1.6270    5.6440 hc        1 MOL     -0.000639
    121 N11         2.4530   -2.9560    0.8530 n         1 MOL     -0.174887
    122 C40         2.6650   -3.6140   -0.3980 c3        1 MOL     -0.237782
    123 C41         4.1330   -3.7850   -0.7230 c         1 MOL      0.401100
    124 O16         4.5460   -3.7470   -1.8650 o         1 MOL     -0.489430
    125 C42         1.9510   -4.9320   -0.4060 c3        1 MOL      0.360366
    126 O17         0.6300   -4.7290   -0.2190 oh        1 MOL     -0.594413
    127 H57         1.6990   -3.3100    1.4310 hn        1 MOL      0.224646
    128 H58         2.1510   -3.0280   -1.1470 h1        1 MOL      0.173622
    129 H59         2.5230   -5.5370    0.2930 h1        1 MOL     -0.002085
    130 H60         2.0760   -5.4400   -1.3540 h1        1 MOL     -0.002085
    131 H61         0.2260   -4.3250   -0.9820 ho        1 MOL      0.384130
    132 N12         4.9820   -4.0480    0.2390 n         1 MOL     -0.347254
    133 C43         6.4380   -4.1990    0.1650 c3        1 MOL      0.296540
    134 C44         7.1450   -3.0030   -0.3730 c         1 MOL      0.354289
    135 O18         8.3130   -3.2150   -0.7620 o         1 MOL     -0.510994
    136 C45         6.8840   -5.5670   -0.4900 c3        1 MOL     -0.276859
    137 H62         4.6230   -4.0730    1.1910 hn        1 MOL      0.228146
    138 H63         6.8030   -4.3090    1.1820 h1        1 MOL      0.022339
    139 H64         6.6610   -6.3870    0.1940 hc        1 MOL      0.081849
    140 H65         6.2860   -5.7760   -1.3860 hc        1 MOL      0.081849
    141 H66         7.9490   -5.5300   -0.7200 hc        1 MOL      0.081849
    142 N13         6.5240   -1.8230   -0.4770 n         1 MOL     -0.188744
    143 C46         7.1120   -0.7210   -1.1860 c3        1 MOL      0.295643
    144 C47         7.5820    0.4350   -0.3470 c         1 MOL      0.291868
    145 O19         6.9400    0.8130    0.6250 o         1 MOL     -0.475248
    146 C48         6.0150   -0.3650   -2.1490 c3        1 MOL     -0.099465
    147 H67         5.7210   -1.5780    0.0920 hn        1 MOL      0.024479
    148 H68         7.9420   -1.2290   -1.6760 h1        1 MOL     -0.015338
    149 H69         5.6620   -1.2240   -2.7200 hc        1 MOL      0.024532
    150 H70         5.1390   -0.1410   -1.5290 hc        1 MOL      0.024532
    151 H71         6.3730    0.4320   -2.7890 hc        1 MOL      0.024532
    152 N14         8.6830    1.1010   -0.7450 n         1 MOL     -0.366798
    153 C49         9.3300    2.2940   -0.1440 c3        1 MOL     -0.071862
    154 C50         9.8000    2.1210    1.3100 c         1 MOL      0.411334
    155 O20         9.8700    3.0150    2.1270 o         1 MOL     -0.491522
    156 C51         8.4970    3.5630   -0.4200 c3        1 MOL      0.412291
    157 C52         8.5520    3.9890   -1.9080 c3        1 MOL     -0.190699
    158 C53         8.0130    5.3270   -2.1730 c         1 MOL      0.648007
    159 O21         6.9090    5.5930   -1.6820 o         1 MOL     -0.666335
    160 O22         8.7370    6.1950   -2.7120 o         1 MOL     -0.666335
    161 H72         8.9740    0.7860   -1.6610 hn        1 MOL      0.258013
    162 H73        10.2970    2.3630   -0.6410 h1        1 MOL      0.067495
    163 H74         8.9010    4.3780    0.1800 hc        1 MOL     -0.066380
    164 H75         7.4870    3.5150   -0.0060 hc        1 MOL     -0.066380
    165 H76         7.9860    3.1970   -2.3940 hc        1 MOL     -0.011645
    166 H77         9.5810    3.9060   -2.2500 hc        1 MOL     -0.011645
    167 N15        10.1540    0.8610    1.5820 n         1 MOL     -0.187452
    168 C54        10.6010    0.3750    2.9290 c3        1 MOL     -0.186941
    169 H78        10.0440    0.8990    3.7060 h1        1 MOL      0.092115
    170 H79        10.4170   -0.6960    3.0080 h1        1 MOL      0.092115
    171 H80        11.6660    0.5720    3.0510 h1        1 MOL      0.092115
    172 H81        10.2330    0.2000    0.8250 hn        1 MOL      0.194949
    173 Ca1         0.7370    1.8430   -0.7980 Ca        1 MOL      1.762346
    174 O23         3.0370    2.2100   -2.5630 oh        1 MOL     -0.809049
    175 H82         3.0410    1.6840   -3.3560 ho        1 MOL      0.407343
    176 H83         3.6390    2.9310   -2.7480 ho        1 MOL      0.407343
    177 O24         3.2250    1.5090    0.2540 oh        1 MOL     -0.809049
    178 H84         3.5410    0.6270    0.4450 ho        1 MOL      0.407343
    179 H85         3.6870    2.0680    0.8800 ho        1 MOL      0.407343
    180 O25         1.4430    4.5310   -0.9830 oh        1 MOL     -0.809049
    181 H86         1.6290    4.8510   -1.8620 ho        1 MOL      0.407343
    182 H87         1.6680    5.2580   -0.4060 ho        1 MOL      0.407343
    183 O26         0.3290    2.7240   -3.3160 oh        1 MOL     -0.809049
    184 H88         0.8790    2.3870   -4.0260 ho        1 MOL      0.407343
    185 H89        -0.3450    3.2290   -3.7680 ho        1 MOL      0.407343
    186 O27         0.8230    2.9620    1.6100 oh        1 MOL     -0.809049
    187 H90         1.7290    3.0150    1.9110 ho        1 MOL      0.407343
    188 H91         0.4070    3.7490    1.9550 ho        1 MOL      0.407343
@<TRIPOS>BOND
     1    1    2 1   
     2    1    4 1   
     3    1    5 1   
     4    1    6 1   
     5    2    3 2   
     6    2    7 1   
     7    7    8 1   
     8    7   15 1   
     9    8    9 1   
    10    8   11 1   
    11    8   16 1   
    12    9   10 2   
    13    9   19 1   
    14   11   12 1   
    15   11   17 1   
    16   11   18 1   
    17   12   13 1   
    18   12   14 1   
    19   19   20 1   
    20   19   28 1   
    21   20   21 1   
    22   20   23 1   
    23   20   29 1   
    24   21   22 2   
    25   21   41 1   
    26   23   24 1   
    27   23   30 1   
    28   23   31 1   
    29   24   25 1   
    30   24   32 1   
    31   24   33 1   
    32   25   26 1   
    33   25   34 1   
    34   25   35 1   
    35   26   27 1   
    36   26   36 1   
    37   26   37 1   
    38   27   38 1   
    39   27   39 1   
    40   27   40 1   
    41   41   42 1   
    42   41   49 1   
    43   42   43 1   
    44   42   45 1   
    45   42   50 1   
    46   43   44 2   
    47   43   53 1   
    48   45   46 1   
    49   45   51 1   
    50   45   52 1   
    51   46   47 1   
    52   46   48 1   
    53   53   54 1   
    54   53   57 1   
    55   54   55 1   
    56   54   58 1   
    57   54   59 1   
    58   55   56 2   
    59   55   60 1   
    60   60   61 1   
    61   60   68 1   
    62   61   62 1   
    63   61   64 1   
    64   61   69 1   
    65   62   63 2   
    66   62   74 1   
    67   64   65 1   
    68   64   70 1   
    69   64   71 1   
    70   65   66 1   
    71   65   67 2   
    72   66   72 1   
    73   66   73 1   
    74   74   75 1   
    75   74   78 1   
    76   75   76 1   
    77   75   79 1   
    78   75   80 1   
    79   76   77 2   
    80   76   81 1   
    81   81   82 1   
    82   81   93 1   
    83   82   83 1   
    84   82   85 1   
    85   82   94 1   
    86   83   84 2   
    87   83  102 1   
    88   85   86 1   
    89   85   95 1   
    90   85   96 1   
    91   86   87 ar  
    92   86   88 ar  
    93   87   89 ar  
    94   87   97 1   
    95   88   90 ar  
    96   88   98 1   
    97   89   91 ar  
    98   89   99 1   
    99   90   91 ar  
   100   90  100 1   
   101   91   92 1   
   102   92  101 1   
   103  102  103 1   
   104  102  110 1   
   105  103  104 1   
   106  103  106 1   
   107  103  111 1   
   108  104  105 2   
   109  104  121 1   
   110  106  107 1   
   111  106  108 1   
   112  106  112 1   
   113  107  109 1   
   114  107  113 1   
   115  107  114 1   
   116  108  115 1   
   117  108  116 1   
   118  108  117 1   
   119  109  118 1   
   120  109  119 1   
   121  109  120 1   
   122  121  122 1   
   123  121  127 1   
   124  122  123 1   
   125  122  125 1   
   126  122  128 1   
   127  123  124 2   
   128  123  132 1   
   129  125  126 1   
   130  125  129 1   
   131  125  130 1   
   132  126  131 1   
   133  132  133 1   
   134  132  137 1   
   135  133  134 1   
   136  133  136 1   
   137  133  138 1   
   138  134  135 2   
   139  134  142 1   
   140  136  139 1   
   141  136  140 1   
   142  136  141 1   
   143  142  143 1   
   144  142  147 1   
   145  143  144 1   
   146  143  146 1   
   147  143  148 1   
   148  144  145 2   
   149  144  152 1   
   150  146  149 1   
   151  146  150 1   
   152  146  151 1   
   153  152  153 1   
   154  152  161 1   
   155  153  154 1   
   156  153  156 1   
   157  153  162 1   
   158  154  155 2   
   159  154  167 1   
   160  156  157 1   
   161  156  163 1   
   162  156  164 1   
   163  157  158 1   
   164  157  165 1   
   165  157  166 1   
   166  158  159 1   
   167  158  160 1   
   168  167  168 1   
   169  167  172 1   
   170  168  169 1   
   171  168  170 1   
   172  168  171 1   
   173  174  175 1   
   174  174  176 1   
   175  177  178 1   
   176  177  179 1   
   177  180  181 1   
   178  180  182 1   
   179  183  184 1   
   180  183  185 1   
   181  186  187 1   
   182  186  188 1   
@<TRIPOS>SUBSTRUCTURE
     1 MOL         1 TEMP              0 ****  ****    0 ROOT
