@<TRIPOS>MOLECULE
MOL
  192   187     1     0     0
SMALL
resp


@<TRIPOS>ATOM
      1 C1          6.0610    2.0490    5.7030 c3        1 MOL     -0.236188
      2 C2          5.4670    1.7210    4.2810 c         1 MOL      0.663998
      3 O1          5.0860    2.6470    3.5570 o         1 MOL     -0.581570
      4 H1          5.4480    1.5770    6.4710 hc        1 MOL      0.061352
      5 H2          7.0810    1.6690    5.7680 hc        1 MOL      0.061352
      6 H3          6.0650    3.1290    5.8560 hc        1 MOL      0.061352
      7 N1          5.3150    0.4260    3.9230 n         1 MOL     -0.435828
      8 C3          4.8670    0.0070    2.5620 c3        1 MOL      0.418093
      9 C4          3.3520    0.1310    2.3470 c         1 MOL     -0.165111
     10 O2          3.0070   -0.0200    1.1660 o         1 MOL     -0.177738
     11 C5          5.2020   -1.5130    2.4360 c3        1 MOL     -0.099061
     12 C6          6.7120   -1.8140    2.6450 c         1 MOL      0.666596
     13 O3          7.2260   -1.8780    3.7830 o         1 MOL     -0.681160
     14 O4          7.4970   -1.9060    1.6820 o         1 MOL     -0.681160
     15 H4          5.6230   -0.3070    4.5400 hn        1 MOL      0.211410
     16 H5          5.3740    0.5780    1.7800 h1        1 MOL     -0.013297
     17 H6          4.9910   -1.8480    1.4170 hc        1 MOL     -0.054828
     18 H7          4.6650   -2.1830    3.1160 hc        1 MOL     -0.054828
     19 N2          2.5580    0.3210    3.3910 n         1 MOL     -0.155552
     20 C7          1.0290    0.3080    3.1590 c3        1 MOL      0.189837
     21 C8          0.4290    1.6780    2.8240 c         1 MOL      0.389745
     22 O5          0.8480    2.6610    3.3920 o         1 MOL     -0.482110
     23 C9          0.4580   -0.3220    4.4220 c3        1 MOL     -0.503941
     24 C10         1.1690   -1.7250    4.6150 c3        1 MOL      0.219437
     25 C11         0.3420   -2.6700    5.4640 c3        1 MOL     -0.181003
     26 C12        -0.9600   -3.2270    4.7830 c3        1 MOL     -0.055783
     27 N3         -0.8450   -3.7060    3.4130 n4        1 MOL     -0.265736
     28 H8          2.9690    0.5450    4.2850 hn        1 MOL      0.224118
     29 H9          0.8520   -0.3300    2.2920 h1        1 MOL      0.050945
     30 H10        -0.6020   -0.5130    4.2660 hc        1 MOL      0.183935
     31 H11         0.6930    0.2360    5.3340 hc        1 MOL      0.183935
     32 H12         2.1090   -1.6910    5.1720 hc        1 MOL     -0.013180
     33 H13         1.3610   -2.2380    3.6720 hc        1 MOL     -0.013180
     34 H14         0.2060   -2.1160    6.3960 hc        1 MOL      0.076119
     35 H15         0.9970   -3.5090    5.7110 hc        1 MOL      0.076119
     36 H16        -1.7210   -2.4410    4.8210 hx        1 MOL      0.098030
     37 H17        -1.3580   -4.0100    5.4310 hx        1 MOL      0.098030
     38 H18        -0.5220   -2.9990    2.7720 hn        1 MOL      0.291617
     39 H19        -0.2630   -4.5330    3.3310 hn        1 MOL      0.291617
     40 H20        -1.7280   -3.9610    2.9830 hn        1 MOL      0.291617
     41 N4         -0.4750    1.8270    1.8180 n         1 MOL     -0.154037
     42 C13        -1.0920    0.7930    0.9570 c3        1 MOL     -0.107465
     43 C14        -1.6520   -0.4250    1.7220 c         1 MOL      0.376388
     44 O6         -1.0290   -1.4740    1.7480 o         1 MOL     -0.453354
     45 C15        -0.2120    0.4340   -0.3100 c3        1 MOL     -0.544358
     46 C16        -0.0970    1.6420   -1.3120 c         1 MOL      0.509857
     47 O7         -0.7960    2.6380   -1.0820 o         1 MOL     -0.621490
     48 O8          0.5350    1.4890   -2.3580 o         1 MOL     -0.621490
     49 H21        -0.5700    2.7560    1.4310 hn        1 MOL      0.122882
     50 H22        -1.9440    1.2610    0.4630 h1        1 MOL      0.028439
     51 H23        -0.7400   -0.3480   -0.8580 hc        1 MOL      0.274682
     52 H24         0.8040    0.3020    0.0410 hc        1 MOL      0.274682
     53 N5         -2.8590   -0.3770    2.3170 n         1 MOL     -0.542305
     54 C17        -3.8080    0.7930    2.2900 c3        1 MOL      0.131174
     55 C18        -5.0760    0.5570    3.1210 c         1 MOL      0.528612
     56 O9         -5.0720   -0.0400    4.1710 o         1 MOL     -0.556063
     57 H25        -3.1920   -1.2460    2.7060 hn        1 MOL      0.299843
     58 H26        -4.2000    0.7630    1.2690 h1        1 MOL      0.086247
     59 H27        -3.3370    1.7310    2.5730 h1        1 MOL      0.086247
     60 N6         -6.0760    1.3270    2.8390 n         1 MOL     -0.452049
     61 C19        -6.0760    2.5020    1.9650 c3        1 MOL     -0.004968
     62 C20        -6.9090    2.2340    0.7030 c         1 MOL      0.387371
     63 O10        -7.7690    1.3660    0.6820 o         1 MOL     -0.435938
     64 C21        -6.5770    3.8020    2.6720 c3        1 MOL     -0.000505
     65 C22        -7.9550    3.8490    3.2450 c         1 MOL      0.701832
     66 O11        -8.1760    3.3220    4.4030 o         1 MOL     -0.674945
     67 O12        -8.7910    4.4850    2.5460 o         1 MOL     -0.674945
     68 H28        -6.9250    1.1230    3.3490 hn        1 MOL      0.329594
     69 H29        -5.0930    2.7730    1.5720 h1        1 MOL      0.003699
     70 H30        -6.4780    4.6700    2.0100 hc        1 MOL     -0.019274
     71 H31        -5.9370    4.0940    3.5160 hc        1 MOL     -0.019274
     72 N7         -6.6910    3.0320   -0.3310 n         1 MOL     -0.180965
     73 C23        -7.0860    2.8810   -1.7230 c3        1 MOL     -0.292627
     74 C24        -6.6420    1.6120   -2.4550 c         1 MOL      0.484891
     75 O13        -7.4200    0.9630   -3.1950 o         1 MOL     -0.546227
     76 H32        -6.1080    3.8190   -0.1110 hn        1 MOL      0.190182
     77 H33        -6.8560    3.7650   -2.3070 h1        1 MOL      0.148423
     78 H34        -8.1720    2.8170   -1.7670 h1        1 MOL      0.148423
     79 N8         -5.4670    1.1360   -2.1650 n         1 MOL     -0.235267
     80 C25        -4.7650   -0.0640   -2.7480 c3        1 MOL      0.030020
     81 C26        -4.4730   -0.9690   -1.5350 c         1 MOL      0.428194
     82 O14        -3.8040   -0.5630   -0.6150 o         1 MOL     -0.293305
     83 C27        -3.3850    0.3200   -3.3730 c3        1 MOL      0.335361
     84 C28        -3.3590    1.3780   -4.4530 c3        1 MOL     -0.184313
     85 O15        -2.9530   -0.8410   -3.9920 oh        1 MOL     -0.649415
     86 H35        -4.9190    1.6620   -1.5040 hn        1 MOL      0.112447
     87 H36        -5.3280   -0.6560   -3.4630 h1        1 MOL      0.108785
     88 H37        -2.6820    0.6680   -2.6200 h1        1 MOL      0.025573
     89 H38        -2.0700   -0.7130   -4.3560 ho        1 MOL      0.435713
     90 H39        -3.7590    1.0530   -5.4140 hc        1 MOL      0.034375
     91 H40        -3.8250    2.3000   -4.0970 hc        1 MOL      0.034375
     92 H41        -2.3270    1.6800   -4.6070 hc        1 MOL      0.034375
     93 N9         -5.0230   -2.2010   -1.6240 n         1 MOL     -0.446833
     94 C29        -4.9250   -3.2470   -0.6060 c3        1 MOL     -0.203089
     95 C30        -3.9650   -4.3480   -1.0100 c         1 MOL      0.529558
     96 O16        -4.0740   -5.5200   -0.6430 o         1 MOL     -0.553551
     97 C31        -6.2670   -3.7750    0.0190 c3        1 MOL      0.369495
     98 C32        -7.2540   -4.2760   -1.0430 c3        1 MOL      0.032643
     99 C33        -6.8670   -2.6680    0.9140 c3        1 MOL     -0.424440
    100 C34        -8.2650   -5.2500   -0.4490 c3        1 MOL     -0.233468
    101 H42        -5.3530   -2.5680   -2.5060 hn        1 MOL      0.304477
    102 H43        -4.4460   -2.7960    0.2610 h1        1 MOL      0.108138
    103 H44        -6.0670   -4.5630    0.7370 hc        1 MOL     -0.027845
    104 H45        -6.6740   -4.8260   -1.7830 hc        1 MOL      0.014930
    105 H46        -7.6770   -3.4460   -1.6010 hc        1 MOL      0.014930
    106 H47        -7.7280   -3.0810    1.4440 hc        1 MOL      0.102692
    107 H48        -6.1460   -2.3740    1.6750 hc        1 MOL      0.102692
    108 H49        -7.2080   -1.8200    0.3280 hc        1 MOL      0.102692
    109 H50        -8.6490   -4.9800    0.5380 hc        1 MOL      0.057269
    110 H51        -9.1310   -5.3560   -1.1020 hc        1 MOL      0.057269
    111 H52        -7.7990   -6.2160   -0.2240 hc        1 MOL      0.057269
    112 N10        -2.8300   -3.9190   -1.6250 n         1 MOL     -0.176691
    113 C35        -1.5690   -4.6810   -1.7440 c3        1 MOL     -0.269063
    114 C36        -0.3620   -3.7170   -1.7480 c         1 MOL      0.712577
    115 O17        -0.4030   -2.7170   -2.4640 o         1 MOL     -0.522883
    116 C37        -1.4770   -5.6390   -2.9270 c3        1 MOL      0.358766
    117 C38        -1.7690   -5.1820   -4.3930 c3        1 MOL     -0.282069
    118 O18        -2.4150   -6.6460   -2.7240 oh        1 MOL     -0.621644
    119 H53        -2.7790   -2.9080   -1.6500 hn        1 MOL      0.123288
    120 H54        -1.3560   -5.2890   -0.8670 h1        1 MOL      0.083909
    121 H55        -0.5390   -6.1980   -2.8750 h1        1 MOL      0.047858
    122 H56        -2.9880   -6.2490   -2.0680 ho        1 MOL      0.384177
    123 H57        -2.6320   -4.5580   -4.5880 hc        1 MOL      0.075824
    124 H58        -0.8720   -4.7610   -4.8470 hc        1 MOL      0.075824
    125 H59        -1.7640   -6.0440   -5.0650 hc        1 MOL      0.075824
    126 N11         0.6690   -4.0120   -0.9470 n         1 MOL     -0.695159
    127 C39         1.6770   -2.9220   -0.5060 c3        1 MOL      0.053299
    128 C40         2.8550   -2.6450   -1.5310 c         1 MOL      0.573397
    129 O19         3.2020   -3.4470   -2.3970 o         1 MOL     -0.549456
    130 C41         2.3060   -3.3120    0.8200 c3        1 MOL      0.224825
    131 C42         3.3000   -4.4730    0.6400 c3        1 MOL     -0.367677
    132 O20         1.2620   -3.8030    1.6090 oh        1 MOL     -0.648754
    133 H60         0.6550   -4.8270   -0.3510 hn        1 MOL      0.344391
    134 H61         1.1460   -1.9650   -0.4090 h1        1 MOL      0.091766
    135 H62         2.8200   -2.5200    1.3580 h1        1 MOL      0.199120
    136 H63         1.5730   -4.5980    2.0430 ho        1 MOL      0.392467
    137 H64         3.3520   -5.0800    1.5440 hc        1 MOL      0.103966
    138 H65         3.0820   -5.1020   -0.2170 hc        1 MOL      0.103966
    139 H66         4.3030   -4.0950    0.4340 hc        1 MOL      0.103966
    140 N12         3.5460   -1.5660   -1.3040 n         1 MOL     -0.301641
    141 C43         4.7750   -1.1780   -2.1030 c3        1 MOL     -0.079796
    142 C44         4.9510    0.3390   -2.0810 c         1 MOL      0.740430
    143 O21         5.5610    0.7660   -3.0700 o         1 MOL     -0.658166
    144 C45         6.0050   -1.9330   -1.5500 c3        1 MOL      0.021713
    145 C46         7.1230   -1.9880   -2.5480 c3        1 MOL     -0.078399
    146 C47         8.3690   -2.6780   -2.0440 c3        1 MOL      0.131712
    147 C48         9.6150   -2.3500   -2.9030 c3        1 MOL     -0.022209
    148 N13        10.8750   -2.8130   -2.2600 n4        1 MOL     -0.207751
    149 H67         3.2640   -1.0630   -0.4760 hn        1 MOL     -0.069796
    150 H68         4.6200   -1.4270   -3.1530 h1        1 MOL      0.102810
    151 H69         5.8620   -2.9600   -1.2270 hc        1 MOL      0.051473
    152 H70         6.3800   -1.4560   -0.6400 hc        1 MOL      0.051473
    153 H71         7.4180   -0.9480   -2.7460 hc        1 MOL      0.030988
    154 H72         6.8280   -2.4690   -3.4830 hc        1 MOL      0.030988
    155 H73         8.1330   -3.7500   -2.0510 hc        1 MOL     -0.014190
    156 H74         8.5680   -2.3470   -1.0310 hc        1 MOL     -0.014190
    157 H75         9.6500   -1.2680   -2.9840 hx        1 MOL      0.078036
    158 H76         9.5460   -2.7700   -3.9110 hx        1 MOL      0.078036
    159 H77        10.8720   -3.7200   -1.8250 hn        1 MOL      0.285648
    160 H78        11.6620   -2.8480   -2.8880 hn        1 MOL      0.285648
    161 H79        11.2510   -2.2050   -1.5450 hn        1 MOL      0.285648
    162 N14         4.4720    1.0620   -1.0990 n         1 MOL     -0.450335
    163 C49         4.6080    2.4840   -1.0360 c3        1 MOL     -0.158801
    164 C50         6.0960    2.9050   -0.8510 c         1 MOL      0.378412
    165 O22         6.8590    2.3300   -0.0640 o         1 MOL     -0.502355
    166 C51         3.7000    3.0290    0.0690 c3        1 MOL      0.480689
    167 C52         3.5760    4.5140    0.1420 c3        1 MOL     -0.777331
    168 C53         3.1260    5.0800   -1.1640 c         1 MOL      0.715260
    169 O23         4.0430    5.3110   -1.9650 o         1 MOL     -0.699943
    170 O24         1.9570    5.1460   -1.5400 o         1 MOL     -0.699943
    171 H80         3.9770    0.5790   -0.3600 hn        1 MOL      0.322379
    172 H81         4.3480    2.7910   -2.0450 h1        1 MOL      0.149375
    173 H82         4.1170    2.7270    1.0240 hc        1 MOL     -0.010645
    174 H83         2.7400    2.5270    0.0560 hc        1 MOL     -0.010645
    175 H84         4.5000    4.9940    0.4610 hc        1 MOL      0.193678
    176 H85         2.8370    4.6210    0.9440 hc        1 MOL      0.193678
    177 N15         6.4950    3.8870   -1.5920 n         1 MOL     -0.261776
    178 C54         7.8760    4.4420   -1.5330 c3        1 MOL      0.044919
    179 H86         8.2150    4.6770   -2.5430 h1        1 MOL      0.030787
    180 H87         7.8800    5.3490   -0.9290 h1        1 MOL      0.030787
    181 H88         8.5460    3.7060   -1.0880 h1        1 MOL      0.030787
    182 H89         5.7580    4.2380   -2.1870 hn        1 MOL      0.319463
    183 Ca1        -0.5300    5.0930   -1.8100 Ca        1 MOL      1.596498
    184 O25        -2.6160    5.4170   -3.4460 oh        1 MOL     -0.806794
    185 H90        -2.7840    4.9020   -4.2390 ho        1 MOL      0.405038
    186 H91        -2.9130    6.3090   -3.6720 ho        1 MOL      0.405038
    187 O26        -0.1860    3.6430   -4.0110 oh        1 MOL     -0.806794
    188 H92         0.0510    2.7560   -3.7500 ho        1 MOL      0.405038
    189 H93        -0.0780    3.6460   -4.9640 ho        1 MOL      0.405038
    190 O27         0.2190    6.6750   -3.7430 oh        1 MOL     -0.806794
    191 H94         0.4740    7.4300   -3.2220 ho        1 MOL      0.405038
    192 H95        -0.0510    7.0380   -4.5840 ho        1 MOL      0.405038
@<TRIPOS>BOND
     1    1    2 1   
     2    1    4 1   
     3    1    5 1   
     4    1    6 1   
     5    2    3 2   
     6    2    7 1   
     7    7    8 1   
     8    7   15 1   
     9    8    9 1   
    10    8   11 1   
    11    8   16 1   
    12    9   10 2   
    13    9   19 1   
    14   11   12 1   
    15   11   17 1   
    16   11   18 1   
    17   12   13 1   
    18   12   14 1   
    19   19   20 1   
    20   19   28 1   
    21   20   21 1   
    22   20   23 1   
    23   20   29 1   
    24   21   22 2   
    25   21   41 1   
    26   23   24 1   
    27   23   30 1   
    28   23   31 1   
    29   24   25 1   
    30   24   32 1   
    31   24   33 1   
    32   25   26 1   
    33   25   34 1   
    34   25   35 1   
    35   26   27 1   
    36   26   36 1   
    37   26   37 1   
    38   27   38 1   
    39   27   39 1   
    40   27   40 1   
    41   41   42 1   
    42   41   49 1   
    43   42   43 1   
    44   42   45 1   
    45   42   50 1   
    46   43   44 2   
    47   43   53 1   
    48   45   46 1   
    49   45   51 1   
    50   45   52 1   
    51   46   47 1   
    52   46   48 1   
    53   53   54 1   
    54   53   57 1   
    55   54   55 1   
    56   54   58 1   
    57   54   59 1   
    58   55   56 2   
    59   55   60 1   
    60   60   61 1   
    61   60   68 1   
    62   61   62 1   
    63   61   64 1   
    64   61   69 1   
    65   62   63 2   
    66   62   72 1   
    67   64   65 1   
    68   64   70 1   
    69   64   71 1   
    70   65   66 1   
    71   65   67 1   
    72   72   73 1   
    73   72   76 1   
    74   73   74 1   
    75   73   77 1   
    76   73   78 1   
    77   74   75 2   
    78   74   79 1   
    79   79   80 1   
    80   79   86 1   
    81   80   81 1   
    82   80   83 1   
    83   80   87 1   
    84   81   82 2   
    85   81   93 1   
    86   83   84 1   
    87   83   85 1   
    88   83   88 1   
    89   84   90 1   
    90   84   91 1   
    91   84   92 1   
    92   85   89 1   
    93   93   94 1   
    94   93  101 1   
    95   94   95 1   
    96   94   97 1   
    97   94  102 1   
    98   95   96 2   
    99   95  112 1   
   100   97   98 1   
   101   97   99 1   
   102   97  103 1   
   103   98  100 1   
   104   98  104 1   
   105   98  105 1   
   106   99  106 1   
   107   99  107 1   
   108   99  108 1   
   109  100  109 1   
   110  100  110 1   
   111  100  111 1   
   112  112  113 1   
   113  112  119 1   
   114  113  114 1   
   115  113  116 1   
   116  113  120 1   
   117  114  115 2   
   118  114  126 1   
   119  116  117 1   
   120  116  118 1   
   121  116  121 1   
   122  117  123 1   
   123  117  124 1   
   124  117  125 1   
   125  118  122 1   
   126  126  127 1   
   127  126  133 1   
   128  127  128 1   
   129  127  130 1   
   130  127  134 1   
   131  128  129 2   
   132  128  140 1   
   133  130  131 1   
   134  130  132 1   
   135  130  135 1   
   136  131  137 1   
   137  131  138 1   
   138  131  139 1   
   139  132  136 1   
   140  140  141 1   
   141  140  149 1   
   142  141  142 1   
   143  141  144 1   
   144  141  150 1   
   145  142  143 2   
   146  142  162 1   
   147  144  145 1   
   148  144  151 1   
   149  144  152 1   
   150  145  146 1   
   151  145  153 1   
   152  145  154 1   
   153  146  147 1   
   154  146  155 1   
   155  146  156 1   
   156  147  148 1   
   157  147  157 1   
   158  147  158 1   
   159  148  159 1   
   160  148  160 1   
   161  148  161 1   
   162  162  163 1   
   163  162  171 1   
   164  163  164 1   
   165  163  166 1   
   166  163  172 1   
   167  164  165 2   
   168  164  177 1   
   169  166  167 1   
   170  166  173 1   
   171  166  174 1   
   172  167  168 1   
   173  167  175 1   
   174  167  176 1   
   175  168  169 1   
   176  168  170 1   
   177  177  178 1   
   178  177  182 1   
   179  178  179 1   
   180  178  180 1   
   181  178  181 1   
   182  184  185 1   
   183  184  186 1   
   184  187  188 1   
   185  187  189 1   
   186  190  191 1   
   187  190  192 1   
@<TRIPOS>SUBSTRUCTURE
     1 MOL         1 TEMP              0 ****  ****    0 ROOT
