@<TRIPOS>MOLECULE
MOL
  195   189     1     0     0
SMALL
resp


@<TRIPOS>ATOM
      1 C1         -3.6180   -2.4730    2.7290 c3        1 MOL     -0.398250
      2 C2         -2.5300   -2.8650    1.7060 c         1 MOL      0.593236
      3 O1         -1.6620   -2.0800    1.2530 o         1 MOL     -0.497219
      4 H1         -4.1720   -1.6110    2.3570 hc        1 MOL      0.102576
      5 H2         -4.3010   -3.3100    2.8720 hc        1 MOL      0.102576
      6 H3         -3.1490   -2.2200    3.6800 hc        1 MOL      0.102576
      7 N1         -2.4820   -4.0770    1.2300 n         1 MOL     -0.582007
      8 C3         -1.5820   -4.5420    0.1170 c3        1 MOL     -0.016104
      9 C4         -0.0850   -4.4810    0.4130 c         1 MOL      0.928297
     10 O2          0.7280   -4.3980   -0.4810 o         1 MOL     -0.613190
     11 C5         -1.9950   -4.0000   -1.2440 c3        1 MOL     -0.419634
     12 C6         -3.5300   -4.1510   -1.5350 c         1 MOL      0.808773
     13 O3         -4.1540   -5.1330   -1.0400 o         1 MOL     -0.704011
     14 O4         -4.0910   -3.3050   -2.3220 o         1 MOL     -0.704011
     15 H4         -3.1250   -4.7960    1.5390 hn        1 MOL      0.284338
     16 H5         -1.8170   -5.5980    0.0460 h1        1 MOL      0.101730
     17 H6         -1.4930   -4.5820   -2.0200 hc        1 MOL      0.144363
     18 H7         -1.7560   -2.9380   -1.3990 hc        1 MOL      0.144363
     19 N2          0.3890   -4.7420    1.6730 n         1 MOL     -0.882844
     20 C7          1.8370   -4.5590    2.0280 c3        1 MOL      0.052690
     21 C8          2.7370   -5.6680    1.4190 c         1 MOL      0.511603
     22 O5          2.3550   -6.8250    1.2060 o         1 MOL     -0.527626
     23 C9          1.9620   -4.4850    3.6110 c3        1 MOL     -0.025602
     24 C10         1.4960   -5.8950    4.2330 c3        1 MOL      0.046507
     25 C11         1.0350   -3.4640    4.2050 c3        1 MOL     -0.042684
     26 C12         1.7980   -5.9570    5.6920 c3        1 MOL     -0.184493
     27 H8         -0.3010   -4.8900    2.3960 hn        1 MOL      0.380803
     28 H9          2.0600   -3.6110    1.5330 h1        1 MOL      0.151018
     29 H10         3.0020   -4.2290    3.8110 hc        1 MOL      0.094340
     30 H11         2.0140   -6.7010    3.7260 hc        1 MOL      0.027146
     31 H12         0.4290   -6.1090    4.1350 hc        1 MOL      0.027146
     32 H13         0.8280   -3.4070    5.2630 hc        1 MOL      0.018951
     33 H14         1.4790   -2.5000    3.9340 hc        1 MOL      0.018951
     34 H15         0.0140   -3.4570    3.8190 hc        1 MOL      0.018951
     35 H16         1.3900   -6.9080    6.0190 hc        1 MOL      0.026052
     36 H17         2.8440   -5.7500    5.9610 hc        1 MOL      0.026052
     37 H18         1.1830   -5.2160    6.2030 hc        1 MOL      0.026052
     38 N3          4.0500   -5.3130    1.0630 n         1 MOL     -0.494783
     39 C13         4.7260   -3.9660    1.1560 c3        1 MOL      0.154441
     40 C14         4.6740   -3.2800   -0.2590 c         1 MOL      0.330130
     41 O6          4.8140   -2.0380   -0.3960 o         1 MOL     -0.544677
     42 C15         6.1960   -4.0810    1.6280 c3        1 MOL     -0.392201
     43 C16         6.9660   -5.2080    0.9810 c         1 MOL      0.800890
     44 O7          7.0310   -5.2270   -0.2440 o         1 MOL     -0.731889
     45 O8          7.5700   -6.0830    1.6920 o         1 MOL     -0.731889
     46 H19         4.5820   -6.0080    0.5540 hn        1 MOL      0.289289
     47 H20         4.2230   -3.3010    1.8490 h1        1 MOL      0.076975
     48 H21         6.1430   -4.2960    2.7030 hc        1 MOL      0.079528
     49 H22         6.6770   -3.1350    1.3700 hc        1 MOL      0.079528
     50 N4          4.3280   -3.9610   -1.3470 n         1 MOL     -0.014373
     51 C17         4.2200   -3.5170   -2.7200 c3        1 MOL     -0.255025
     52 C18         5.4270   -2.9200   -3.3500 c         1 MOL      0.582644
     53 O9          6.3690   -3.6400   -3.6980 o         1 MOL     -0.533160
     54 H23         4.0460   -4.9310   -1.2710 hn        1 MOL      0.227166
     55 H24         3.3850   -2.8190   -2.7390 h1        1 MOL      0.077749
     56 H25         4.0310   -4.3620   -3.3980 h1        1 MOL      0.077749
     57 N5          5.4730   -1.5810   -3.3490 n         1 MOL     -0.550804
     58 C19         6.6380   -0.7150   -3.8050 c3        1 MOL      0.154407
     59 C20         7.4490   -0.2730   -2.5610 c         1 MOL      0.423435
     60 O10         8.5570    0.2310   -2.7100 o         1 MOL     -0.600787
     61 C21         6.1510    0.5000   -4.6730 c3        1 MOL     -0.239869
     62 C22         5.2960    1.5220   -4.0560 c         1 MOL      0.745497
     63 O11         4.8640    2.4090   -4.8630 o         1 MOL     -0.708563
     64 O12         4.9800    1.4360   -2.8510 o         1 MOL     -0.708563
     65 H26         4.6830   -1.0710   -2.9840 hn        1 MOL      0.330667
     66 H27         7.2640   -1.4480   -4.3200 h1        1 MOL      0.056839
     67 H28         5.6820    0.0920   -5.5740 hc        1 MOL      0.038007
     68 H29         7.0720    0.8950   -5.1030 hc        1 MOL      0.038007
     69 N6          6.9360   -0.4740   -1.3540 n         1 MOL     -0.032664
     70 C23         7.4160   -0.0820   -0.0500 c3        1 MOL     -0.295408
     71 C24         7.1860    1.4090    0.3450 c         1 MOL      0.706457
     72 O13         7.6640    1.8000    1.3700 o         1 MOL     -0.612653
     73 H30         5.9830   -0.8000   -1.4610 hn        1 MOL      0.192971
     74 H31         8.4900   -0.2290   -0.1070 h1        1 MOL      0.120602
     75 H32         7.0060   -0.7150    0.7340 h1        1 MOL      0.120602
     76 N7          6.5190    2.1860   -0.5050 n         1 MOL     -0.542329
     77 C25         6.2210    3.6210   -0.3600 c3        1 MOL      0.229390
     78 C26         5.6190    4.1780    0.9140 c         1 MOL      0.352645
     79 O14         5.7600    5.4180    1.1880 o         1 MOL     -0.518565
     80 C27         7.2830    4.5660   -0.9940 c3        1 MOL      0.162385
     81 C28         7.9520    4.0720   -2.2820 c3        1 MOL     -0.089498
     82 C29         9.2380    4.8770   -2.5800 c         1 MOL      0.658021
     83 N8         10.1450    4.2750   -3.2780 n         1 MOL     -0.806661
     84 O15         9.4410    5.9790   -2.1410 o         1 MOL     -0.593914
     85 H33         6.3070    1.8060   -1.4050 hn        1 MOL      0.259759
     86 H34         5.3920    3.6940   -1.0690 h1        1 MOL      0.026725
     87 H35         8.0210    4.8180   -0.2370 hc        1 MOL     -0.038911
     88 H36         6.8210    5.5220   -1.2370 hc        1 MOL     -0.038911
     89 H37         7.3270    4.1130   -3.1760 hc        1 MOL      0.018498
     90 H38         8.2790    3.0370   -2.1520 hc        1 MOL      0.018498
     91 H39         9.9620    3.3110   -3.5550 hn        1 MOL      0.354639
     92 H40        11.0880    4.6430   -3.2950 hn        1 MOL      0.354639
     93 N9          4.9680    3.2850    1.6720 n         1 MOL     -0.184130
     94 C30         4.4310    3.5540    3.0460 c3        1 MOL     -0.322687
     95 C31         2.8570    3.3230    3.1420 c         1 MOL      0.548923
     96 O16         2.2910    3.4540    4.2180 o         1 MOL     -0.581877
     97 C32         5.1100    2.7070    4.1230 c3        1 MOL      0.399233
     98 C33         5.0230    1.1730    3.8220 c3        1 MOL     -0.291242
     99 C34         6.5680    3.0680    4.4560 c3        1 MOL     -0.291242
    100 H41         4.8680    2.3230    1.3980 hn        1 MOL      0.254839
    101 H42         4.5290    4.6290    3.1940 h1        1 MOL      0.156848
    102 H43         4.6680    2.7380    5.1170 hc        1 MOL     -0.050687
    103 H44         5.2890    0.6810    4.7560 hc        1 MOL      0.062391
    104 H45         4.0260    0.8570    3.5260 hc        1 MOL      0.062391
    105 H46         5.6480    0.8280    2.9970 hc        1 MOL      0.062391
    106 H47         6.6640    4.1440    4.6290 hc        1 MOL      0.062391
    107 H48         6.8700    2.5150    5.3520 hc        1 MOL      0.062391
    108 H49         7.2800    2.6960    3.7150 hc        1 MOL      0.062391
    109 N10         2.1590    2.9640    2.0920 n         1 MOL     -0.415533
    110 C35         0.7360    2.7300    1.9670 c3        1 MOL      0.386009
    111 C36         0.1520    3.5680    0.8170 c         1 MOL      0.466162
    112 O17         0.8540    4.2990    0.1350 o         1 MOL     -0.501900
    113 C37         0.4610    1.2400    1.8150 c3        1 MOL     -0.151976
    114 C38         1.1070    0.3180    2.8980 c         1 MOL      0.607362
    115 N11         0.5850    0.3140    4.0390 n         1 MOL     -0.771414
    116 O18         2.1850   -0.2490    2.6730 o         1 MOL     -0.584724
    117 H50         2.7060    2.7440    1.2700 hn        1 MOL      0.200122
    118 H51         0.2600    2.9980    2.9120 h1        1 MOL     -0.050608
    119 H52         0.8620    0.9610    0.8400 hc        1 MOL      0.060282
    120 H53        -0.6270    1.0790    1.8030 hc        1 MOL      0.060282
    121 H54        -0.2010    0.9430    4.1140 hn        1 MOL      0.379423
    122 H55         1.0220   -0.1670    4.8150 hn        1 MOL      0.379423
    123 N12        -1.1740    3.4640    0.6200 n         1 MOL     -0.508334
    124 C39        -1.9130    4.1870   -0.4310 c3        1 MOL      0.106163
    125 C40        -3.4580    4.2340   -0.0730 c         1 MOL      0.622555
    126 O19        -3.9150    3.6280    0.8830 o         1 MOL     -0.605781
    127 C41        -1.6380    3.5370   -1.8140 c3        1 MOL     -0.316563
    128 C42        -2.5810    2.3180   -2.0940 ca        1 MOL     -0.038260
    129 C43        -2.1960    1.0690   -1.4960 ca        1 MOL     -0.088713
    130 C44        -3.7920    2.4780   -2.8210 ca        1 MOL     -0.088713
    131 C45        -3.0530   -0.0120   -1.7260 ca        1 MOL     -0.249340
    132 C46        -4.6340    1.3930   -2.9890 ca        1 MOL     -0.249340
    133 C47        -4.2810    0.1550   -2.4060 ca        1 MOL      0.281369
    134 O20        -5.0900   -0.9190   -2.6420 oh        1 MOL     -0.532939
    135 H56        -1.6970    2.8410    1.2300 hn        1 MOL      0.279662
    136 H57        -1.5220    5.1940   -0.4250 h1        1 MOL      0.080268
    137 H58        -0.6000    3.2710   -1.9780 hc        1 MOL      0.142657
    138 H59        -1.9030    4.2640   -2.5810 hc        1 MOL      0.142657
    139 H60        -1.2780    0.9190   -0.9500 ha        1 MOL      0.130357
    140 H61        -4.0120    3.3920   -3.3530 ha        1 MOL      0.130357
    141 H62        -2.7750   -0.9680   -1.3100 ha        1 MOL      0.133002
    142 H63        -5.5440    1.4240   -3.5670 ha        1 MOL      0.133002
    143 H64        -4.5690   -1.7080   -2.4970 ho        1 MOL      0.399490
    144 N13        -4.2760    5.0150   -0.8340 n         1 MOL     -0.628085
    145 C48        -5.7640    5.1580   -0.4970 c3        1 MOL      0.136006
    146 C49        -6.6360    4.2150   -1.4100 c         1 MOL      0.548335
    147 O21        -6.8260    4.5950   -2.5690 o         1 MOL     -0.607518
    148 C50        -6.1680    6.6400   -0.6090 c3        1 MOL     -0.034101
    149 C51        -5.6290    7.5310    0.5200 c3        1 MOL     -0.201095
    150 C52        -6.2100    8.9400    0.6460 c         1 MOL      0.729729
    151 O22        -5.5250    9.9130    1.0240 o         1 MOL     -0.705496
    152 O23        -7.4020    9.1840    0.3630 o         1 MOL     -0.705496
    153 H65        -3.8400    5.6920   -1.4380 hn        1 MOL      0.337438
    154 H66        -5.9990    4.8260    0.5110 h1        1 MOL      0.126419
    155 H67        -7.2600    6.6130   -0.6510 hc        1 MOL      0.033613
    156 H68        -5.8950    7.1070   -1.5480 hc        1 MOL      0.033613
    157 H69        -4.5510    7.6790    0.5820 hc        1 MOL      0.025577
    158 H70        -5.9620    7.0040    1.4160 hc        1 MOL      0.025577
    159 N14        -7.2650    3.1710   -0.9910 n         1 MOL     -0.335583
    160 C53        -6.9980    2.3140    0.1940 c3        1 MOL     -0.249598
    161 C54        -7.4020    2.9820    1.5120 c         1 MOL      0.434114
    162 O24        -8.3000    3.8230    1.4750 o         1 MOL     -0.504205
    163 C55        -7.5470    0.8780   -0.0340 c3        1 MOL      0.188045
    164 C56        -7.0290   -0.2350    0.9410 c3        1 MOL      0.025164
    165 C57        -7.6100   -1.6030    0.5870 c         1 MOL      0.614104
    166 O25        -8.8040   -1.8770    0.9330 o         1 MOL     -0.737466
    167 O26        -6.9730   -2.2980   -0.1910 o         1 MOL     -0.737466
    168 H71        -7.9570    2.8820   -1.6710 hn        1 MOL      0.249962
    169 H72        -5.9160    2.3030    0.2820 h1        1 MOL      0.180846
    170 H73        -7.3180    0.6500   -1.0680 hc        1 MOL      0.009013
    171 H74        -8.6340    0.9010    0.0290 hc        1 MOL      0.009013
    172 H75        -7.3930   -0.0340    1.9530 hc        1 MOL     -0.032239
    173 H76        -5.9560   -0.0250    0.9660 hc        1 MOL     -0.032239
    174 N15        -6.6860    2.6470    2.5960 n         1 MOL     -0.232851
    175 C58        -6.8780    3.1340    3.9550 c3        1 MOL     -0.134685
    176 H77        -7.8700    3.5780    4.0440 h1        1 MOL      0.074452
    177 H78        -6.7890    2.3040    4.6550 h1        1 MOL      0.074452
    178 H79        -6.1220    3.8850    4.1820 h1        1 MOL      0.074452
    179 H80        -5.9710    1.9380    2.5110 hn        1 MOL      0.259275
    180 Ca1        -6.7380   -4.5820   -1.2570 Ca        1 MOL      1.711495
    181 O27        -9.0140   -5.4960   -2.6980 oh        1 MOL     -0.859686
    182 H81        -9.5270   -4.7080   -2.5750 ho        1 MOL      0.409297
    183 H82        -9.4050   -5.9210   -3.4630 ho        1 MOL      0.409297
    184 O28        -8.9630   -4.3820    0.2520 oh        1 MOL     -0.859686
    185 H83        -8.9060   -3.5350    0.7090 ho        1 MOL      0.409297
    186 H84        -9.8490   -4.6870    0.4210 ho        1 MOL      0.409297
    187 O29        -7.3810   -2.8110   -3.1310 oh        1 MOL     -0.859686
    188 H85        -6.7490   -2.1010   -3.2190 ho        1 MOL      0.409297
    189 H86        -8.2310   -2.3980   -3.2790 ho        1 MOL      0.409297
    190 O30        -5.7990   -5.6950   -3.5120 oh        1 MOL     -0.859686
    191 H87        -5.4020   -6.4290   -3.9890 ho        1 MOL      0.409297
    192 H88        -5.7230   -4.9510   -4.1140 ho        1 MOL      0.409297
    193 O31        -7.0580   -7.4300   -1.2030 oh        1 MOL     -0.859686
    194 H89        -7.6430   -7.9730   -0.6740 ho        1 MOL      0.409297
    195 H90        -6.9060   -7.9430   -1.9980 ho        1 MOL      0.409297
@<TRIPOS>BOND
     1    1    2 1   
     2    1    4 1   
     3    1    5 1   
     4    1    6 1   
     5    2    3 2   
     6    2    7 1   
     7    7    8 1   
     8    7   15 1   
     9    8    9 1   
    10    8   11 1   
    11    8   16 1   
    12    9   10 2   
    13    9   19 1   
    14   11   12 1   
    15   11   17 1   
    16   11   18 1   
    17   12   13 1   
    18   12   14 1   
    19   19   20 1   
    20   19   27 1   
    21   20   21 1   
    22   20   23 1   
    23   20   28 1   
    24   21   22 2   
    25   21   38 1   
    26   23   24 1   
    27   23   25 1   
    28   23   29 1   
    29   24   26 1   
    30   24   30 1   
    31   24   31 1   
    32   25   32 1   
    33   25   33 1   
    34   25   34 1   
    35   26   35 1   
    36   26   36 1   
    37   26   37 1   
    38   38   39 1   
    39   38   46 1   
    40   39   40 1   
    41   39   42 1   
    42   39   47 1   
    43   40   41 2   
    44   40   50 1   
    45   42   43 1   
    46   42   48 1   
    47   42   49 1   
    48   43   44 1   
    49   43   45 1   
    50   50   51 1   
    51   50   54 1   
    52   51   52 1   
    53   51   55 1   
    54   51   56 1   
    55   52   53 2   
    56   52   57 1   
    57   57   58 1   
    58   57   65 1   
    59   58   59 1   
    60   58   61 1   
    61   58   66 1   
    62   59   60 2   
    63   59   69 1   
    64   61   62 1   
    65   61   67 1   
    66   61   68 1   
    67   62   63 1   
    68   62   64 1   
    69   69   70 1   
    70   69   73 1   
    71   70   71 1   
    72   70   74 1   
    73   70   75 1   
    74   71   72 2   
    75   71   76 1   
    76   76   77 1   
    77   76   85 1   
    78   77   78 1   
    79   77   80 1   
    80   77   86 1   
    81   78   79 2   
    82   78   93 1   
    83   80   81 1   
    84   80   87 1   
    85   80   88 1   
    86   81   82 1   
    87   81   89 1   
    88   81   90 1   
    89   82   83 1   
    90   82   84 2   
    91   83   91 1   
    92   83   92 1   
    93   93   94 1   
    94   93  100 1   
    95   94   95 1   
    96   94   97 1   
    97   94  101 1   
    98   95   96 2   
    99   95  109 1   
   100   97   98 1   
   101   97   99 1   
   102   97  102 1   
   103   98  103 1   
   104   98  104 1   
   105   98  105 1   
   106   99  106 1   
   107   99  107 1   
   108   99  108 1   
   109  109  110 1   
   110  109  117 1   
   111  110  111 1   
   112  110  113 1   
   113  110  118 1   
   114  111  112 2   
   115  111  123 1   
   116  113  114 1   
   117  113  119 1   
   118  113  120 1   
   119  114  115 1   
   120  114  116 2   
   121  115  121 1   
   122  115  122 1   
   123  123  124 1   
   124  123  135 1   
   125  124  125 1   
   126  124  127 1   
   127  124  136 1   
   128  125  126 2   
   129  125  144 1   
   130  127  128 1   
   131  127  137 1   
   132  127  138 1   
   133  128  129 ar  
   134  128  130 ar  
   135  129  131 ar  
   136  129  139 1   
   137  130  132 ar  
   138  130  140 1   
   139  131  133 ar  
   140  131  141 1   
   141  132  133 ar  
   142  132  142 1   
   143  133  134 1   
   144  134  143 1   
   145  144  145 1   
   146  144  153 1   
   147  145  146 1   
   148  145  148 1   
   149  145  154 1   
   150  146  147 2   
   151  146  159 1   
   152  148  149 1   
   153  148  155 1   
   154  148  156 1   
   155  149  150 1   
   156  149  157 1   
   157  149  158 1   
   158  150  151 1   
   159  150  152 1   
   160  159  160 1   
   161  159  168 1   
   162  160  161 1   
   163  160  163 1   
   164  160  169 1   
   165  161  162 2   
   166  161  174 1   
   167  163  164 1   
   168  163  170 1   
   169  163  171 1   
   170  164  165 1   
   171  164  172 1   
   172  164  173 1   
   173  165  166 1   
   174  165  167 1   
   175  174  175 1   
   176  174  179 1   
   177  175  176 1   
   178  175  177 1   
   179  175  178 1   
   180  181  182 1   
   181  181  183 1   
   182  184  185 1   
   183  184  186 1   
   184  187  188 1   
   185  187  189 1   
   186  190  191 1   
   187  190  192 1   
   188  193  194 1   
   189  193  195 1   
@<TRIPOS>SUBSTRUCTURE
     1 MOL         1 TEMP              0 ****  ****    0 ROOT
