@<TRIPOS>MOLECULE
MOL
  182   178     1     0     0
SMALL
resp


@<TRIPOS>ATOM
      1 C1          0.9510   -3.9200    6.4570 c3        1 MOL     -0.339799
      2 C2          0.8720   -3.8140    4.9540 c         1 MOL      0.767242
      3 O1         -0.0630   -4.1700    4.2300 o         1 MOL     -0.622706
      4 H1          1.9810   -4.1230    6.7530 hc        1 MOL      0.095528
      5 H2          0.6230   -2.9820    6.9050 hc        1 MOL      0.095528
      6 H3          0.3090   -4.7310    6.7990 hc        1 MOL      0.095528
      7 N1          1.9370   -3.2850    4.3260 n         1 MOL     -0.615052
      8 C3          2.0290   -2.9900    2.9430 c3        1 MOL     -0.089050
      9 C4          2.3350   -4.2450    2.1770 c         1 MOL      0.726262
     10 O2          3.3820   -4.8930    2.3850 o         1 MOL     -0.570996
     11 C5          3.1510   -1.9650    2.7890 c3        1 MOL     -0.054152
     12 C6          3.2630   -1.4420    1.3700 c         1 MOL      0.431348
     13 O3          3.9150   -0.3790    1.2530 o         1 MOL     -0.688147
     14 O4          2.6320   -1.8920    0.3640 o         1 MOL     -0.688147
     15 H4          2.6780   -3.0010    4.9400 hn        1 MOL      0.315086
     16 H5          1.1080   -2.5150    2.5900 h1        1 MOL      0.105659
     17 H6          4.0670   -2.4500    3.1110 hc        1 MOL      0.073592
     18 H7          2.8090   -1.2240    3.5160 hc        1 MOL      0.073592
     19 N2          1.5140   -4.4650    1.1120 n         1 MOL     -0.540644
     20 C7          1.7070   -5.4400   -0.0160 c3        1 MOL     -0.014782
     21 C8          2.9080   -5.3190   -0.9220 c         1 MOL      0.551895
     22 O5          3.3530   -6.3410   -1.4260 o         1 MOL     -0.580762
     23 C9          0.4820   -5.5130   -0.8870 c3        1 MOL      0.010562
     24 C10        -0.5820   -6.4360   -0.3040 c3        1 MOL      0.052536
     25 C11        -1.6000   -6.8970   -1.3500 c3        1 MOL     -0.072333
     26 C12        -2.2950   -8.2100   -0.9110 c3        1 MOL      0.090642
     27 N3         -3.3100   -8.5900   -1.9230 n4        1 MOL     -0.314638
     28 H8          0.8190   -3.7410    0.9730 hn        1 MOL      0.277996
     29 H9          1.9250   -6.4120    0.4320 h1        1 MOL      0.111105
     30 H10         0.7100   -5.9220   -1.8750 hc        1 MOL      0.007528
     31 H11         0.1090   -4.5010   -1.0030 hc        1 MOL      0.007528
     32 H12        -1.2570   -5.9690    0.4130 hc        1 MOL      0.009496
     33 H13        -0.0870   -7.2450    0.2170 hc        1 MOL      0.009496
     34 H14        -1.0280   -7.1860   -2.2350 hc        1 MOL      0.035604
     35 H15        -2.3080   -6.1030   -1.5800 hc        1 MOL      0.035604
     36 H16        -2.7980   -7.9310    0.0110 hx        1 MOL      0.067129
     37 H17        -1.5700   -9.0090   -0.7290 hx        1 MOL      0.067129
     38 H18        -2.8290   -8.7180   -2.8040 hn        1 MOL      0.270946
     39 H19        -3.7880   -9.4320   -1.6420 hn        1 MOL      0.270946
     40 H20        -3.9920   -7.8490   -1.9860 hn        1 MOL      0.270946
     41 N4          3.4830   -4.1330   -1.1060 n         1 MOL     -0.406695
     42 C13         4.7080   -3.9260   -1.9520 c3        1 MOL      0.009374
     43 C14         5.9260   -3.2090   -1.2830 c         1 MOL      0.363763
     44 O6          6.9880   -3.0000   -1.8860 o         1 MOL     -0.516077
     45 C15         4.2980   -3.3130   -3.2590 c3        1 MOL     -0.362749
     46 C16         3.9640   -1.8090   -3.2460 c         1 MOL      0.798373
     47 O7          4.0630   -1.2210   -2.1520 o         1 MOL     -0.707566
     48 O8          3.7560   -1.2390   -4.3330 o         1 MOL     -0.707566
     49 H21         3.0540   -3.3380   -0.6680 hn        1 MOL      0.329802
     50 H22         5.1090   -4.9050   -2.2160 h1        1 MOL      0.140495
     51 H23         3.5290   -3.9350   -3.7000 hc        1 MOL      0.107278
     52 H24         5.1420   -3.3140   -3.9420 hc        1 MOL      0.107278
     53 N5          5.7460   -2.9370   -0.0270 n         1 MOL     -0.124741
     54 C17         6.7170   -2.1870    0.8100 c3        1 MOL     -0.205015
     55 C18         7.2530   -0.8080    0.3480 c         1 MOL      0.460124
     56 O9          8.3190   -0.4100    0.8470 o         1 MOL     -0.551999
     57 H25         4.9410   -3.2780    0.4780 hn        1 MOL      0.179109
     58 H26         7.6110   -2.7940    0.9510 h1        1 MOL      0.124930
     59 H27         6.2580   -2.0720    1.7950 h1        1 MOL      0.124930
     60 N6          6.6800   -0.0930   -0.5890 n         1 MOL     -0.044365
     61 C19         7.1140    1.2070   -1.0600 c3        1 MOL     -0.043265
     62 C20         6.0190    2.1730   -0.7390 c         1 MOL      0.527368
     63 O10         4.8280    1.9940   -0.8160 o         1 MOL     -0.515038
     64 C21         7.4530    1.2450   -2.5700 c3        1 MOL     -0.265898
     65 C22         8.7560    0.6050   -2.9210 c         1 MOL      0.783438
     66 N7          8.7310   -0.5150   -3.5890 n         1 MOL     -0.884071
     67 O11         9.8760    1.1550   -2.7560 o         1 MOL     -0.600085
     68 H28         5.8060   -0.4670   -0.9440 hn        1 MOL      0.153061
     69 H29         8.0270    1.5430   -0.5730 h1        1 MOL      0.060379
     70 H30         7.5810    2.2660   -2.9390 hc        1 MOL      0.058378
     71 H31         6.6910    0.6480   -3.0660 hc        1 MOL      0.058378
     72 H32         7.8000   -0.8990   -3.6870 hn        1 MOL      0.412090
     73 H33         9.5410   -1.0190   -3.9180 hn        1 MOL      0.412090
     74 N8          6.4540    3.4470   -0.5970 n         1 MOL     -0.392917
     75 C23         5.5850    4.6340   -0.6520 c3        1 MOL     -0.077062
     76 C24         4.4350    4.7490    0.4070 c         1 MOL      0.553404
     77 O12         4.6750    4.5430    1.6070 o         1 MOL     -0.480595
     78 H34         7.4350    3.6100   -0.7180 hn        1 MOL      0.311262
     79 H35         5.0610    4.5990   -1.6120 h1        1 MOL      0.078401
     80 H36         6.1830    5.5480   -0.5740 h1        1 MOL      0.078401
     81 N9          3.1830    5.0000   -0.0920 n         1 MOL     -0.654161
     82 C25         1.9950    4.8440    0.7670 c3        1 MOL      0.493693
     83 C26         1.8390    3.3650    1.2790 c         1 MOL      0.329858
     84 O13         2.4710    2.4260    0.7200 o         1 MOL     -0.409897
     85 C27         0.7790    5.3710    0.1370 c3        1 MOL     -0.328231
     86 C28         0.7420    6.8750   -0.0860 ca        1 MOL      0.087404
     87 C29         0.7080    7.8020    0.9890 ca        1 MOL     -0.173066
     88 C30         1.0940    7.4070   -1.3290 ca        1 MOL     -0.173066
     89 C31         0.7510    9.1620    0.7980 ca        1 MOL     -0.217293
     90 C32         1.2730    8.7840   -1.5980 ca        1 MOL     -0.217293
     91 C33         0.9710    9.6190   -0.4780 ca        1 MOL      0.291247
     92 O14         1.1110   10.9810   -0.7060 oh        1 MOL     -0.461353
     93 H37         3.0290    5.2890   -1.0500 hn        1 MOL      0.341911
     94 H38         2.1430    5.4170    1.6790 h1        1 MOL     -0.021822
     95 H39        -0.0030    5.1150    0.8500 hc        1 MOL      0.082036
     96 H40         0.6050    4.9200   -0.8370 hc        1 MOL      0.082036
     97 H41         0.3570    7.4430    1.9420 ha        1 MOL      0.117994
     98 H42         1.3100    6.7050   -2.1140 ha        1 MOL      0.117994
     99 H43         0.7430    9.7800    1.6750 ha        1 MOL      0.167215
    100 H44         1.5920    9.2380   -2.5220 ha        1 MOL      0.167215
    101 H45         0.8800   11.4310    0.1150 ho        1 MOL      0.347409
    102 N10         0.8690    3.1800    2.1750 n         1 MOL     -0.443635
    103 C34         0.3170    1.9930    2.7980 c3        1 MOL      0.012765
    104 C35        -0.0970    0.8670    1.8020 c         1 MOL      0.264901
    105 O15         0.7560    0.2900    1.0650 o         1 MOL     -0.151896
    106 C36         1.1580    1.4680    3.8980 c3        1 MOL      0.210840
    107 C37         0.8630    0.0940    4.5710 c3        1 MOL      0.012970
    108 C38         1.4250    2.4560    5.0540 c3        1 MOL     -0.327191
    109 C39        -0.4440   -0.0480    5.3280 c3        1 MOL     -0.131318
    110 H46         0.4660    4.0430    2.5000 hn        1 MOL      0.299132
    111 H47        -0.6280    2.2720    3.2490 h1        1 MOL      0.061062
    112 H48         2.1400    1.2730    3.4900 hc        1 MOL      0.032486
    113 H49         1.6780   -0.3210    5.1710 hc        1 MOL      0.021424
    114 H50         0.7860   -0.6970    3.8210 hc        1 MOL      0.021424
    115 H51         0.5530    2.5300    5.7080 hc        1 MOL      0.081125
    116 H52         2.1760    1.9400    5.6550 hc        1 MOL      0.081125
    117 H53         1.8780    3.4010    4.7650 hc        1 MOL      0.081125
    118 H54        -0.6540   -1.1090    5.4940 hc        1 MOL      0.030968
    119 H55        -0.3510    0.4110    6.3170 hc        1 MOL      0.030968
    120 H56        -1.2870    0.4390    4.8460 hc        1 MOL      0.030968
    121 N11        -1.3920    0.5760    1.7760 n         1 MOL     -0.407847
    122 C40        -2.0040   -0.4990    0.9450 c3        1 MOL     -0.042049
    123 C41        -3.4690   -0.2470    0.8660 c         1 MOL      0.645425
    124 O16        -4.2200   -0.7340    1.7240 o         1 MOL     -0.534772
    125 C42        -1.6570   -1.9560    1.3250 c3        1 MOL     -0.100155
    126 O17        -0.4150   -2.2880    0.7880 oh        1 MOL     -0.253264
    127 H57        -2.0290    1.0770    2.3770 hn        1 MOL      0.316221
    128 H58        -1.7160   -0.2750   -0.0830 h1        1 MOL      0.066549
    129 H59        -2.4280   -2.6270    0.9380 h1        1 MOL      0.134129
    130 H60        -1.5720   -2.1010    2.4040 h1        1 MOL      0.134129
    131 H61         0.2250   -1.6040    0.9790 ho        1 MOL      0.056330
    132 N12        -3.9210    0.2870   -0.3060 n         1 MOL     -0.633016
    133 C43        -5.3540    0.5140   -0.6470 c3        1 MOL      0.272817
    134 C44        -5.5450   -0.2350   -2.0300 c         1 MOL      0.562395
    135 O18        -4.5590   -0.3300   -2.7980 o         1 MOL     -0.576214
    136 C45        -5.6140    2.0000   -0.7400 c3        1 MOL     -0.086427
    137 H62        -3.2330    0.5860   -0.9770 hn        1 MOL      0.297603
    138 H63        -5.9820    0.0280    0.1020 h1        1 MOL      0.048481
    139 H64        -6.6440    2.1490   -1.0440 hc        1 MOL      0.025273
    140 H65        -5.4240    2.4130    0.2440 hc        1 MOL      0.025273
    141 H66        -4.9380    2.4720   -1.4560 hc        1 MOL      0.025273
    142 N13        -6.6560   -0.8450   -2.4620 n         1 MOL     -0.648839
    143 C46        -7.8990   -0.7700   -1.7440 c3        1 MOL      0.424895
    144 C47        -8.8190    0.3030   -2.3350 c         1 MOL      0.491947
    145 O19        -8.8300    0.6190   -3.5320 o         1 MOL     -0.571103
    146 C48        -8.4480   -2.1800   -1.6710 c3        1 MOL     -0.400055
    147 H67        -6.6390   -1.1510   -3.4260 hn        1 MOL      0.364970
    148 H68        -7.7890   -0.5560   -0.6770 h1        1 MOL     -0.010641
    149 H69        -7.7360   -2.8450   -1.1880 hc        1 MOL      0.106652
    150 H70        -9.3960   -2.1700   -1.1380 hc        1 MOL      0.106652
    151 H71        -8.6640   -2.4690   -2.6940 hc        1 MOL      0.106652
    152 N14        -9.6230    0.9650   -1.5850 n         1 MOL     -0.572767
    153 C49       -10.0190    0.7340   -0.1790 c3        1 MOL     -0.007124
    154 C50        -9.5390    1.9240    0.6730 c         1 MOL      0.464936
    155 O20        -9.0820    1.6740    1.7810 o         1 MOL     -0.536994
    156 C51       -11.6060    0.6580   -0.0290 c3        1 MOL      0.060454
    157 C52       -12.0470   -0.6030   -0.8610 c3        1 MOL     -0.233737
    158 C53       -13.5560   -0.8730   -0.6470 c         1 MOL      0.648530
    159 O21       -13.8820   -2.0460   -0.3320 o         1 MOL     -0.648153
    160 O22       -14.3870    0.0400   -0.9000 o         1 MOL     -0.648153
    161 H72       -10.0800    1.7550   -2.0290 hn        1 MOL      0.347588
    162 H73        -9.6270   -0.2050    0.2180 h1        1 MOL      0.095333
    163 H74       -11.9870    1.5990   -0.4120 hc        1 MOL      0.023310
    164 H75       -11.8070    0.6030    1.0330 hc        1 MOL      0.023310
    165 H76       -11.4260   -1.4640   -0.6170 hc        1 MOL      0.067299
    166 H77       -11.9960   -0.3920   -1.9250 hc        1 MOL      0.067299
    167 N15        -9.5750    3.1230    0.0950 n         1 MOL     -0.279796
    168 C54        -9.1510    4.3050    0.8880 c3        1 MOL     -0.299527
    169 H78        -8.5270    4.9500    0.2710 h1        1 MOL      0.131922
    170 H79       -10.0310    4.8570    1.2160 h1        1 MOL      0.131922
    171 H80        -8.5830    3.9740    1.7580 h1        1 MOL      0.131922
    172 H81       -10.0680    3.1970   -0.7770 hn        1 MOL      0.261079
    173 Ca1         2.5230    0.4120   -0.8430 Ca        1 MOL      1.661417
    174 O23         0.7710   -1.0110   -2.2060 oh        1 MOL     -0.890229
    175 H82         0.7000   -1.3500   -3.1040 ho        1 MOL      0.427102
    176 H83        -0.0550   -1.2710   -1.7890 ho        1 MOL      0.427102
    177 O24         0.6800    2.0630   -1.5250 oh        1 MOL     -0.890229
    178 H84         0.7990    2.5360   -2.3520 ho        1 MOL      0.427102
    179 H85        -0.2620    1.9140   -1.4670 ho        1 MOL      0.427102
    180 O25         2.8740    1.1250   -3.3930 oh        1 MOL     -0.890229
    181 H86         3.2240    0.2850   -3.6660 ho        1 MOL      0.427102
    182 H87         3.0600    1.7110   -4.1220 ho        1 MOL      0.427102
@<TRIPOS>BOND
     1    1    2 1   
     2    1    4 1   
     3    1    5 1   
     4    1    6 1   
     5    2    3 2   
     6    2    7 1   
     7    7    8 1   
     8    7   15 1   
     9    8    9 1   
    10    8   11 1   
    11    8   16 1   
    12    9   10 2   
    13    9   19 1   
    14   11   12 1   
    15   11   17 1   
    16   11   18 1   
    17   12   13 1   
    18   12   14 1   
    19   19   20 1   
    20   19   28 1   
    21   20   21 1   
    22   20   23 1   
    23   20   29 1   
    24   21   22 2   
    25   21   41 1   
    26   23   24 1   
    27   23   30 1   
    28   23   31 1   
    29   24   25 1   
    30   24   32 1   
    31   24   33 1   
    32   25   26 1   
    33   25   34 1   
    34   25   35 1   
    35   26   27 1   
    36   26   36 1   
    37   26   37 1   
    38   27   38 1   
    39   27   39 1   
    40   27   40 1   
    41   41   42 1   
    42   41   49 1   
    43   42   43 1   
    44   42   45 1   
    45   42   50 1   
    46   43   44 2   
    47   43   53 1   
    48   45   46 1   
    49   45   51 1   
    50   45   52 1   
    51   46   47 1   
    52   46   48 1   
    53   53   54 1   
    54   53   57 1   
    55   54   55 1   
    56   54   58 1   
    57   54   59 1   
    58   55   56 2   
    59   55   60 1   
    60   60   61 1   
    61   60   68 1   
    62   61   62 1   
    63   61   64 1   
    64   61   69 1   
    65   62   63 2   
    66   62   74 1   
    67   64   65 1   
    68   64   70 1   
    69   64   71 1   
    70   65   66 1   
    71   65   67 2   
    72   66   72 1   
    73   66   73 1   
    74   74   75 1   
    75   74   78 1   
    76   75   76 1   
    77   75   79 1   
    78   75   80 1   
    79   76   77 2   
    80   76   81 1   
    81   81   82 1   
    82   81   93 1   
    83   82   83 1   
    84   82   85 1   
    85   82   94 1   
    86   83   84 2   
    87   83  102 1   
    88   85   86 1   
    89   85   95 1   
    90   85   96 1   
    91   86   87 ar  
    92   86   88 ar  
    93   87   89 ar  
    94   87   97 1   
    95   88   90 ar  
    96   88   98 1   
    97   89   91 ar  
    98   89   99 1   
    99   90   91 ar  
   100   90  100 1   
   101   91   92 1   
   102   92  101 1   
   103  102  103 1   
   104  102  110 1   
   105  103  104 1   
   106  103  106 1   
   107  103  111 1   
   108  104  105 2   
   109  104  121 1   
   110  106  107 1   
   111  106  108 1   
   112  106  112 1   
   113  107  109 1   
   114  107  113 1   
   115  107  114 1   
   116  108  115 1   
   117  108  116 1   
   118  108  117 1   
   119  109  118 1   
   120  109  119 1   
   121  109  120 1   
   122  121  122 1   
   123  121  127 1   
   124  122  123 1   
   125  122  125 1   
   126  122  128 1   
   127  123  124 2   
   128  123  132 1   
   129  125  126 1   
   130  125  129 1   
   131  125  130 1   
   132  126  131 1   
   133  132  133 1   
   134  132  137 1   
   135  133  134 1   
   136  133  136 1   
   137  133  138 1   
   138  134  135 2   
   139  134  142 1   
   140  136  139 1   
   141  136  140 1   
   142  136  141 1   
   143  142  143 1   
   144  142  147 1   
   145  143  144 1   
   146  143  146 1   
   147  143  148 1   
   148  144  145 2   
   149  144  152 1   
   150  146  149 1   
   151  146  150 1   
   152  146  151 1   
   153  152  153 1   
   154  152  161 1   
   155  153  154 1   
   156  153  156 1   
   157  153  162 1   
   158  154  155 2   
   159  154  167 1   
   160  156  157 1   
   161  156  163 1   
   162  156  164 1   
   163  157  158 1   
   164  157  165 1   
   165  157  166 1   
   166  158  159 1   
   167  158  160 1   
   168  167  168 1   
   169  167  172 1   
   170  168  169 1   
   171  168  170 1   
   172  168  171 1   
   173  174  175 1   
   174  174  176 1   
   175  177  178 1   
   176  177  179 1   
   177  180  181 1   
   178  180  182 1   
@<TRIPOS>SUBSTRUCTURE
     1 MOL         1 TEMP              0 ****  ****    0 ROOT
