@<TRIPOS>MOLECULE
MOL
  186   183     1     0     0
SMALL
resp


@<TRIPOS>ATOM
      1 C1         11.5990    4.2740   -4.0620 c3        1 MOL     -0.456234
      2 C2         11.6220    3.3210   -2.8310 c         1 MOL      0.487221
      3 O1         12.1400    2.1780   -2.8990 o         1 MOL     -0.542790
      4 H1         11.0340    5.1730   -3.8150 hc        1 MOL      0.120756
      5 H2         12.6190    4.5500   -4.3290 hc        1 MOL      0.120756
      6 H3         11.1270    3.7690   -4.9050 hc        1 MOL      0.120756
      7 N1         11.0830    3.8270   -1.7460 n         1 MOL      0.206450
      8 C3         10.9560    3.0710   -0.5120 c3        1 MOL     -1.059949
      9 C4          9.7790    2.0850   -0.6520 c         1 MOL      0.806763
     10 O2          8.7860    2.3680   -1.3030 o         1 MOL     -0.636335
     11 C5         10.5800    3.9990    0.6500 c3        1 MOL      0.354000
     12 C6          9.6430    5.1410    0.4190 c         1 MOL      0.587319
     13 O3          9.1080    5.3590   -0.7130 o         1 MOL     -0.695772
     14 O4          9.3950    5.8900    1.4450 o         1 MOL     -0.695772
     15 H4         10.4570    4.6220   -1.8350 hn        1 MOL      0.017213
     16 H5         11.9210    2.6150   -0.3130 h1        1 MOL      0.283507
     17 H6         11.5460    4.4720    0.8370 hc        1 MOL      0.013438
     18 H7         10.2330    3.5730    1.5910 hc        1 MOL      0.013438
     19 N2          9.9380    1.0650    0.1110 n         1 MOL     -0.354664
     20 C7          9.1220   -0.1470   -0.0500 c3        1 MOL     -0.175120
     21 C8          7.6870   -0.1270    0.4310 c         1 MOL      0.644864
     22 O5          7.0700   -1.0630    0.1170 o         1 MOL     -0.471290
     23 C9          9.9410   -1.3350    0.3620 c3        1 MOL     -0.142252
     24 C10        10.1260   -1.5480    1.9240 c3        1 MOL      0.024110
     25 C11         8.9640   -2.1430    2.7150 c3        1 MOL     -0.105907
     26 C12         9.3650   -2.7110    4.0410 c3        1 MOL      0.067467
     27 N3          8.2100   -2.7960    4.9820 n4        1 MOL     -0.404373
     28 H8         10.8340    1.1030    0.5880 hn        1 MOL      0.273835
     29 H9          8.9150   -0.3620   -1.1070 h1        1 MOL      0.142790
     30 H10        10.8960   -1.2510   -0.1480 hc        1 MOL      0.090813
     31 H11         9.5170   -2.2230   -0.0880 hc        1 MOL      0.090813
     32 H12        10.3120   -0.5850    2.4000 hc        1 MOL     -0.001386
     33 H13        11.0150   -2.1690    2.0700 hc        1 MOL     -0.001386
     34 H14         8.6600   -3.0110    2.1320 hc        1 MOL      0.082473
     35 H15         8.1840   -1.3960    2.8780 hc        1 MOL      0.082473
     36 H16        10.1620   -2.1270    4.4840 hx        1 MOL      0.066915
     37 H17         9.8100   -3.6860    3.8490 hx        1 MOL      0.066915
     38 H18         7.7790   -1.8900    5.1240 hn        1 MOL      0.319900
     39 H19         7.4220   -3.3380    4.6560 hn        1 MOL      0.319900
     40 H20         8.5430   -3.1020    5.8850 hn        1 MOL      0.319900
     41 N4          7.1630    0.8610    1.1260 n         1 MOL     -0.302890
     42 C13         5.7570    1.0450    1.2270 c3        1 MOL     -0.332731
     43 C14         4.9790    1.3470   -0.1410 c         1 MOL      0.598705
     44 O6          5.5420    2.1350   -0.9800 o         1 MOL     -0.662174
     45 C15         5.5050    2.1130    2.2740 c3        1 MOL     -0.204169
     46 C16         6.1940    3.5030    2.1700 c         1 MOL      0.512295
     47 O7          6.0030    4.3720    3.0780 o         1 MOL     -0.600299
     48 O8          6.8580    3.7500    1.1250 o         1 MOL     -0.600299
     49 H21         7.8220    1.6180    1.2500 hn        1 MOL      0.276793
     50 H22         5.3190    0.1310    1.6090 h1        1 MOL      0.206268
     51 H23         5.7170    1.7670    3.2850 hc        1 MOL      0.108040
     52 H24         4.4260    2.3120    2.3080 hc        1 MOL      0.108040
     53 N5          3.7550    0.8580   -0.3180 n         1 MOL     -0.400454
     54 C17         3.1200   -0.3100    0.3810 c3        1 MOL     -0.023123
     55 C18         3.8600   -1.6960    0.1230 c         1 MOL      0.692908
     56 O9          4.2930   -1.9680   -0.9820 o         1 MOL     -0.568696
     57 H25         3.3600    1.2020   -1.1860 hn        1 MOL      0.270176
     58 H26         2.1260   -0.3870   -0.0780 h1        1 MOL      0.058525
     59 H27         3.1690   -0.1620    1.4540 h1        1 MOL      0.058525
     60 N6          4.0510   -2.5170    1.1230 n         1 MOL     -0.758343
     61 C19         4.6360   -3.8480    1.0510 c3        1 MOL      0.175339
     62 C20         3.4990   -4.7970    1.4560 c         1 MOL      0.586073
     63 O10         2.7370   -4.6740    2.4640 o         1 MOL     -0.478216
     64 C21         5.8010   -4.1180    2.0160 c3        1 MOL     -0.173030
     65 C22         5.5400   -3.7910    3.5070 c         1 MOL      0.781631
     66 O11         4.8540   -2.7930    3.8490 o         1 MOL     -0.712003
     67 O12         6.2090   -4.4280    4.3120 o         1 MOL     -0.712003
     68 H28         3.6980   -2.2800    2.0430 hn        1 MOL      0.371318
     69 H29         4.8610   -4.1610    0.0350 h1        1 MOL      0.045615
     70 H30         6.6030   -3.4680    1.6680 hc        1 MOL      0.001314
     71 H31         6.0380   -5.1930    1.9570 hc        1 MOL      0.001314
     72 N7          3.3300   -5.8310    0.6460 n         1 MOL     -0.397115
     73 C23         2.2190   -6.7890    0.7060 c3        1 MOL     -0.215854
     74 C24         0.9590   -6.2540    0.1130 c         1 MOL      0.625509
     75 O13        -0.0750   -6.2570    0.7710 o         1 MOL     -0.520336
     76 H32         3.7640   -5.8850   -0.2680 hn        1 MOL      0.261129
     77 H33         2.1190   -7.1700    1.7190 h1        1 MOL      0.122677
     78 H34         2.6030   -7.6320    0.1330 h1        1 MOL      0.122677
     79 N8          0.9900   -5.6790   -1.1000 n         1 MOL     -0.537811
     80 C25        -0.1510   -5.0010   -1.7360 c3        1 MOL      0.056902
     81 C26        -0.3140   -3.4930   -1.5070 c         1 MOL      0.736563
     82 O14         0.4490   -2.9660   -0.7870 o         1 MOL     -0.493792
     83 C27        -0.2410   -5.3380   -3.2720 c3        1 MOL      0.264102
     84 C28         0.9930   -4.9180   -4.1230 c3        1 MOL     -0.373746
     85 O15        -0.2890   -6.7480   -3.4370 oh        1 MOL     -0.596537
     86 H35         1.8240   -5.7050   -1.6640 hn        1 MOL      0.305975
     87 H36        -1.1040   -5.4090   -1.4080 h1        1 MOL      0.043390
     88 H37        -1.2010   -4.9600   -3.6190 h1        1 MOL      0.019754
     89 H38        -1.1750   -7.0550   -3.2200 ho        1 MOL      0.391013
     90 H39         1.2720   -3.8610   -4.0810 hc        1 MOL      0.115315
     91 H40         1.9220   -5.3690   -3.7850 hc        1 MOL      0.115315
     92 H41         0.8090   -5.2120   -5.1560 hc        1 MOL      0.115315
     93 N9         -1.3780   -2.7840   -2.0200 n         1 MOL     -0.825016
     94 C29        -1.6950   -1.3480   -1.8560 c3        1 MOL      0.259597
     95 C30        -3.2320   -1.0440   -1.5400 c         1 MOL      0.539609
     96 O16        -3.5520    0.0550   -1.1010 o         1 MOL     -0.519169
     97 C31        -1.1260   -0.6500   -3.0850 c3        1 MOL      0.010968
     98 C32        -1.0260    0.8570   -2.9180 c3        1 MOL      0.049387
     99 C33        -1.9420   -1.0230   -4.3420 c3        1 MOL     -0.433766
    100 C34        -0.2950    1.4300   -1.7760 c3        1 MOL     -0.339608
    101 H42        -1.9280   -3.1630   -2.7700 hn        1 MOL      0.307294
    102 H43        -1.1360   -1.1310   -0.9510 h1        1 MOL      0.090604
    103 H44        -0.1230   -1.0590   -3.1480 hc        1 MOL      0.036736
    104 H45        -2.0710    1.1690   -2.8260 hc        1 MOL      0.031920
    105 H46        -0.6970    1.3270   -3.8420 hc        1 MOL      0.031920
    106 H47        -1.7500   -2.0640   -4.5810 hc        1 MOL      0.112197
    107 H48        -3.0030   -0.8800   -4.1660 hc        1 MOL      0.112197
    108 H49        -1.6560   -0.4240   -5.2140 hc        1 MOL      0.112197
    109 H50        -0.1740    2.5110   -1.8960 hc        1 MOL      0.084408
    110 H51        -0.6890    1.0920   -0.8190 hc        1 MOL      0.084408
    111 H52         0.7400    1.1010   -1.7860 hc        1 MOL      0.084408
    112 N10        -4.0680   -2.0740   -1.4610 n         1 MOL     -0.498093
    113 C35        -5.1580   -2.1530   -0.4610 c3        1 MOL     -0.049472
    114 C36        -6.4550   -2.3930   -1.2540 c         1 MOL      0.704237
    115 O17        -6.4290   -3.1410   -2.2320 o         1 MOL     -0.563263
    116 C37        -4.8960   -3.2730    0.5200 c3        1 MOL      0.388043
    117 C38        -5.7170   -3.2940    1.8610 c3        1 MOL     -0.376579
    118 O18        -5.0560   -4.5070   -0.0670 oh        1 MOL     -0.583398
    119 H53        -3.9110   -2.8680   -2.0680 hn        1 MOL      0.273593
    120 H54        -5.2630   -1.2080    0.0600 h1        1 MOL      0.093246
    121 H55        -3.8380   -3.1320    0.7250 h1        1 MOL      0.003906
    122 H56        -4.5550   -4.4840   -0.8910 ho        1 MOL      0.359809
    123 H57        -5.4730   -4.2420    2.3450 hc        1 MOL      0.103086
    124 H58        -5.5600   -2.4100    2.4950 hc        1 MOL      0.103086
    125 H59        -6.7640   -3.1710    1.6070 hc        1 MOL      0.103086
    126 N11        -7.5100   -1.7120   -0.8010 n         1 MOL     -0.661534
    127 C39        -8.8910   -1.9950   -1.3550 c3        1 MOL      0.078605
    128 C40        -9.8080   -0.7510   -1.3640 c         1 MOL      0.607592
    129 O19       -10.4980   -0.5840   -2.3820 o         1 MOL     -0.574498
    130 C41        -9.5490   -3.1160   -0.5660 c3        1 MOL      0.318210
    131 C42       -10.9520   -3.5970   -1.0780 c3        1 MOL     -0.383584
    132 O20        -9.4870   -2.7770    0.7540 oh        1 MOL     -0.610154
    133 H60        -7.3910   -1.1840    0.0470 hn        1 MOL      0.346225
    134 H61        -8.8630   -2.3620   -2.3820 h1        1 MOL      0.084397
    135 H62        -8.8830   -3.9690   -0.6950 h1        1 MOL      0.015111
    136 H63        -9.4240   -3.6580    1.1430 ho        1 MOL      0.394365
    137 H64       -11.0670   -3.8090   -2.1300 hc        1 MOL      0.098165
    138 H65       -11.2350   -4.4890   -0.5230 hc        1 MOL      0.098165
    139 H66       -11.7490   -2.9170   -0.7670 hc        1 MOL      0.098165
    140 N12        -9.7790    0.1010   -0.3530 n         1 MOL     -0.451465
    141 C43       -10.5260    1.3830   -0.3430 c3        1 MOL      0.117195
    142 C44        -9.8990    2.3010    0.7440 c         1 MOL      0.506349
    143 O21        -9.2060    1.8380    1.6720 o         1 MOL     -0.501716
    144 C45       -11.9990    1.0530   -0.0990 c3        1 MOL     -0.339792
    145 C46       -12.3420    0.2410    1.1760 c3        1 MOL      0.168329
    146 C47       -13.8080    0.2200    1.6310 c3        1 MOL     -0.027504
    147 C48       -14.2160   -0.7750    2.7300 c3        1 MOL     -0.078260
    148 N13       -14.5570   -2.1180    2.1770 n4        1 MOL     -0.156524
    149 H67        -9.2320   -0.1580    0.4550 hn        1 MOL      0.266295
    150 H68       -10.4250    1.8850   -1.3040 h1        1 MOL      0.091415
    151 H69       -12.4060    0.4890   -0.9390 hc        1 MOL      0.099714
    152 H70       -12.5590    1.9930   -0.0750 hc        1 MOL      0.099714
    153 H71       -11.7500    0.4960    2.0490 hc        1 MOL     -0.021016
    154 H72       -11.9770   -0.7460    0.9220 hc        1 MOL     -0.021016
    155 H73       -14.5280    0.0700    0.8250 hc        1 MOL      0.044372
    156 H74       -14.0370    1.2140    2.0020 hc        1 MOL      0.044372
    157 H75       -15.1060   -0.4240    3.2460 hx        1 MOL      0.108046
    158 H76       -13.5060   -0.8300    3.5420 hx        1 MOL      0.108046
    159 H77       -14.9070   -2.1280    1.2350 hn        1 MOL      0.205334
    160 H78       -13.6660   -2.5980    2.1530 hn        1 MOL      0.205334
    161 H79       -15.0660   -2.6490    2.8730 hn        1 MOL      0.205334
    162 N14       -10.0740    3.5760    0.5230 n         1 MOL     -0.523470
    163 C49        -9.3710    4.6460    1.3030 c3        1 MOL      0.263747
    164 C50        -7.7970    4.6870    1.3330 c         1 MOL      0.301657
    165 O22        -7.3670    4.8020    2.4520 o         1 MOL     -0.511978
    166 C51        -9.8490    5.9790    0.8440 c3        1 MOL      0.060718
    167 C52        -9.3670    7.2660    1.5940 c3        1 MOL     -0.277894
    168 C53        -9.7160    8.5620    0.8290 c         1 MOL      0.744787
    169 O23        -9.5380    9.6770    1.3090 o         1 MOL     -0.643734
    170 O24       -10.2710    8.5290   -0.3050 o         1 MOL     -0.643734
    171 H80       -10.6690    3.8440   -0.2510 hn        1 MOL      0.292548
    172 H81        -9.7290    4.6340    2.3340 h1        1 MOL      0.036192
    173 H82       -10.9330    6.0440    0.8810 hc        1 MOL     -0.019249
    174 H83        -9.5890    6.0270   -0.2100 hc        1 MOL     -0.019249
    175 H84        -8.2930    7.4180    1.7160 hc        1 MOL      0.072348
    176 H85        -9.8110    7.3200    2.5940 hc        1 MOL      0.072348
    177 N15        -7.0170    4.5340    0.2880 n         1 MOL     -0.182185
    178 C54        -7.3460    4.2660   -1.1360 c3        1 MOL     -0.280599
    179 H86        -8.0750    4.9980   -1.4850 h1        1 MOL      0.115819
    180 H87        -6.4400    4.3410   -1.7390 h1        1 MOL      0.115819
    181 H88        -7.7640    3.2640   -1.2320 h1        1 MOL      0.115819
    182 H89        -6.0360    4.7040    0.4660 hn        1 MOL      0.255201
    183 Ca1         6.6410    4.7180   -1.2520 Ca        1 MOL      1.709009
    184 O25         7.3420    3.2990   -3.4260 oh        1 MOL     -0.843205
    185 H90         7.5750    3.3600   -4.3600 ho        1 MOL      0.424738
    186 H91         7.9250    2.6260   -3.0810 ho        1 MOL      0.424738
@<TRIPOS>BOND
     1    1    2 1   
     2    1    4 1   
     3    1    5 1   
     4    1    6 1   
     5    2    3 2   
     6    2    7 1   
     7    7    8 1   
     8    7   15 1   
     9    8    9 1   
    10    8   11 1   
    11    8   16 1   
    12    9   10 2   
    13    9   19 1   
    14   11   12 1   
    15   11   17 1   
    16   11   18 1   
    17   12   13 1   
    18   12   14 1   
    19   19   20 1   
    20   19   28 1   
    21   20   21 1   
    22   20   23 1   
    23   20   29 1   
    24   21   22 2   
    25   21   41 1   
    26   23   24 1   
    27   23   30 1   
    28   23   31 1   
    29   24   25 1   
    30   24   32 1   
    31   24   33 1   
    32   25   26 1   
    33   25   34 1   
    34   25   35 1   
    35   26   27 1   
    36   26   36 1   
    37   26   37 1   
    38   27   38 1   
    39   27   39 1   
    40   27   40 1   
    41   41   42 1   
    42   41   49 1   
    43   42   43 1   
    44   42   45 1   
    45   42   50 1   
    46   43   44 2   
    47   43   53 1   
    48   45   46 1   
    49   45   51 1   
    50   45   52 1   
    51   46   47 1   
    52   46   48 1   
    53   53   54 1   
    54   53   57 1   
    55   54   55 1   
    56   54   58 1   
    57   54   59 1   
    58   55   56 2   
    59   55   60 1   
    60   60   61 1   
    61   60   68 1   
    62   61   62 1   
    63   61   64 1   
    64   61   69 1   
    65   62   63 2   
    66   62   72 1   
    67   64   65 1   
    68   64   70 1   
    69   64   71 1   
    70   65   66 1   
    71   65   67 1   
    72   72   73 1   
    73   72   76 1   
    74   73   74 1   
    75   73   77 1   
    76   73   78 1   
    77   74   75 2   
    78   74   79 1   
    79   79   80 1   
    80   79   86 1   
    81   80   81 1   
    82   80   83 1   
    83   80   87 1   
    84   81   82 2   
    85   81   93 1   
    86   83   84 1   
    87   83   85 1   
    88   83   88 1   
    89   84   90 1   
    90   84   91 1   
    91   84   92 1   
    92   85   89 1   
    93   93   94 1   
    94   93  101 1   
    95   94   95 1   
    96   94   97 1   
    97   94  102 1   
    98   95   96 2   
    99   95  112 1   
   100   97   98 1   
   101   97   99 1   
   102   97  103 1   
   103   98  100 1   
   104   98  104 1   
   105   98  105 1   
   106   99  106 1   
   107   99  107 1   
   108   99  108 1   
   109  100  109 1   
   110  100  110 1   
   111  100  111 1   
   112  112  113 1   
   113  112  119 1   
   114  113  114 1   
   115  113  116 1   
   116  113  120 1   
   117  114  115 2   
   118  114  126 1   
   119  116  117 1   
   120  116  118 1   
   121  116  121 1   
   122  117  123 1   
   123  117  124 1   
   124  117  125 1   
   125  118  122 1   
   126  126  127 1   
   127  126  133 1   
   128  127  128 1   
   129  127  130 1   
   130  127  134 1   
   131  128  129 2   
   132  128  140 1   
   133  130  131 1   
   134  130  132 1   
   135  130  135 1   
   136  131  137 1   
   137  131  138 1   
   138  131  139 1   
   139  132  136 1   
   140  140  141 1   
   141  140  149 1   
   142  141  142 1   
   143  141  144 1   
   144  141  150 1   
   145  142  143 2   
   146  142  162 1   
   147  144  145 1   
   148  144  151 1   
   149  144  152 1   
   150  145  146 1   
   151  145  153 1   
   152  145  154 1   
   153  146  147 1   
   154  146  155 1   
   155  146  156 1   
   156  147  148 1   
   157  147  157 1   
   158  147  158 1   
   159  148  159 1   
   160  148  160 1   
   161  148  161 1   
   162  162  163 1   
   163  162  171 1   
   164  163  164 1   
   165  163  166 1   
   166  163  172 1   
   167  164  165 2   
   168  164  177 1   
   169  166  167 1   
   170  166  173 1   
   171  166  174 1   
   172  167  168 1   
   173  167  175 1   
   174  167  176 1   
   175  168  169 1   
   176  168  170 1   
   177  177  178 1   
   178  177  182 1   
   179  178  179 1   
   180  178  180 1   
   181  178  181 1   
   182  184  185 1   
   183  184  186 1   
@<TRIPOS>SUBSTRUCTURE
     1 MOL         1 TEMP              0 ****  ****    0 ROOT
