@<TRIPOS>MOLECULE
MOL
  195   189     1     0     0
SMALL
resp


@<TRIPOS>ATOM
      1 C1          3.4620   -4.4140   -2.7790 c3        1 MOL     -0.559428
      2 C2          2.4310   -4.6380   -1.6030 c         1 MOL      0.646820
      3 O1          1.7480   -3.7050   -1.1890 o         1 MOL     -0.400747
      4 H1          3.8430   -5.3780   -3.1170 hc        1 MOL      0.144924
      5 H2          2.9640   -3.9100   -3.6080 hc        1 MOL      0.144924
      6 H3          4.2900   -3.8000   -2.4250 hc        1 MOL      0.144924
      7 N1          2.3390   -5.8700   -1.1190 n         1 MOL     -0.671266
      8 C3          1.6510   -6.1510    0.1340 c3        1 MOL     -0.272484
      9 C4          0.1460   -6.0210    0.0910 c         1 MOL      0.759587
     10 O2         -0.5840   -5.6770    1.0580 o         1 MOL     -0.561179
     11 C5          2.3150   -5.3280    1.3020 c3        1 MOL     -0.146032
     12 C6          3.9040   -5.2870    1.4790 c         1 MOL      0.773957
     13 O3          4.5860   -4.5390    0.7140 o         1 MOL     -0.727408
     14 O4          4.4570   -5.8680    2.4590 o         1 MOL     -0.727408
     15 H4          2.9130   -6.5520   -1.5880 hn        1 MOL      0.403336
     16 H5          1.8770   -7.1460    0.5090 h1        1 MOL      0.182072
     17 H6          1.9140   -5.8140    2.1940 hc        1 MOL      0.083667
     18 H7          2.0270   -4.2860    1.2650 hc        1 MOL      0.083667
     19 N2         -0.4060   -6.2520   -1.1060 n         1 MOL     -0.619985
     20 C7         -1.7460   -5.7670   -1.5070 c3        1 MOL     -0.046859
     21 C8         -2.9290   -6.5220   -0.8270 c         1 MOL      0.661630
     22 O5         -2.8470   -7.7710   -0.6650 o         1 MOL     -0.607774
     23 C9         -1.9770   -5.8600   -3.0360 c3        1 MOL     -0.044925
     24 C10        -0.9770   -5.1680   -3.9560 c3        1 MOL      0.037305
     25 C11        -3.4060   -5.5000   -3.5340 c3        1 MOL     -0.196294
     26 C12        -0.7630   -3.6660   -3.7320 c3        1 MOL     -0.250962
     27 H8          0.2200   -6.4560   -1.8760 hn        1 MOL      0.375494
     28 H9         -1.7440   -4.7070   -1.2680 h1        1 MOL      0.179700
     29 H10        -1.9240   -6.9210   -3.2700 hc        1 MOL      0.020460
     30 H11        -1.2930   -5.3360   -4.9890 hc        1 MOL     -0.007260
     31 H12        -0.0120   -5.6690   -3.8290 hc        1 MOL     -0.007260
     32 H13        -3.6460   -4.4460   -3.4080 hc        1 MOL      0.063929
     33 H14        -3.4830   -5.5830   -4.6210 hc        1 MOL      0.063929
     34 H15        -4.2830   -6.0450   -3.1740 hc        1 MOL      0.063929
     35 H16        -0.0400   -3.4660   -4.5310 hc        1 MOL      0.082930
     36 H17        -1.6950   -3.1240   -3.8550 hc        1 MOL      0.082930
     37 H18        -0.2390   -3.4440   -2.8020 hc        1 MOL      0.082930
     38 N3         -4.0110   -5.9860   -0.3070 n         1 MOL     -0.524005
     39 C13        -4.2450   -4.5790    0.1440 c3        1 MOL      0.287363
     40 C14        -4.7270   -4.6220    1.5600 c         1 MOL      0.495354
     41 O6         -5.5600   -5.5100    1.8370 o         1 MOL     -0.527801
     42 C15        -5.0360   -3.7240   -0.9080 c3        1 MOL     -0.063055
     43 C16        -5.6350   -2.5020   -0.2380 c         1 MOL      0.636089
     44 O7         -6.8060   -2.5790    0.2440 o         1 MOL     -0.729482
     45 O8         -4.8970   -1.6520    0.2530 o         1 MOL     -0.729482
     46 H19        -4.7350   -6.6920   -0.2110 hn        1 MOL      0.289142
     47 H20        -3.2890   -4.0670    0.0830 h1        1 MOL     -0.080849
     48 H21        -5.8380   -4.2870   -1.3890 hc        1 MOL     -0.014051
     49 H22        -4.3390   -3.4160   -1.6800 hc        1 MOL     -0.014051
     50 N4         -4.2970   -3.6560    2.4370 n         1 MOL     -0.440479
     51 C17        -4.8110   -3.5230    3.8070 c3        1 MOL     -0.000355
     52 C18        -5.7240   -2.2760    4.0380 c         1 MOL      0.551872
     53 O9         -6.0830   -2.0650    5.2120 o         1 MOL     -0.601911
     54 H23        -3.5850   -3.0090    2.1470 hn        1 MOL      0.312496
     55 H24        -4.0050   -3.5260    4.5380 h1        1 MOL      0.062545
     56 H25        -5.4120   -4.4000    4.0630 h1        1 MOL      0.062545
     57 N5         -6.1300   -1.4520    3.0330 n         1 MOL     -0.461762
     58 C19        -6.8670   -0.1270    3.2900 c3        1 MOL     -0.067100
     59 C20        -7.6810    0.5100    2.1290 c         1 MOL      0.407203
     60 O10        -8.5810    1.2860    2.2530 o         1 MOL     -0.552479
     61 C21        -5.8280    0.8790    3.8140 c3        1 MOL     -0.280439
     62 C22        -4.6490    1.1060    2.7660 c         1 MOL      0.755823
     63 O11        -4.8470    1.8530    1.7790 o         1 MOL     -0.689958
     64 O12        -3.4760    0.7670    3.0140 o         1 MOL     -0.689958
     65 H26        -5.8620   -1.6470    2.0780 hn        1 MOL      0.380416
     66 H27        -7.6080   -0.4170    4.0430 h1        1 MOL      0.131616
     67 H28        -5.4270    0.5450    4.7730 hc        1 MOL      0.072780
     68 H29        -6.2320    1.8370    4.1370 hc        1 MOL      0.072780
     69 N6         -7.3330    0.1100    0.8470 n         1 MOL     -0.078957
     70 C23        -8.0400    0.5070   -0.3490 c3        1 MOL     -0.290298
     71 C24        -7.6980    1.9920   -0.8430 c         1 MOL      0.583064
     72 O13        -8.1260    2.3260   -1.9400 o         1 MOL     -0.587396
     73 H30        -6.4750   -0.4110    0.7480 hn        1 MOL      0.257341
     74 H31        -9.1110    0.3900   -0.1890 h1        1 MOL      0.113372
     75 H32        -7.7650   -0.1790   -1.1550 h1        1 MOL      0.113372
     76 N7         -6.8650    2.7460   -0.0300 n         1 MOL     -0.294792
     77 C25        -6.3120    4.0560   -0.4020 c3        1 MOL     -0.049739
     78 C26        -5.6870    4.2330   -1.8190 c         1 MOL      0.444653
     79 O14        -5.5130    5.3330   -2.3460 o         1 MOL     -0.510006
     80 C27        -7.3230    5.1590   -0.0930 c3        1 MOL      0.211976
     81 C28        -7.8440    5.0890    1.3390 c3        1 MOL     -0.130115
     82 C29        -8.1670    6.3910    1.9910 c         1 MOL      0.576097
     83 N8         -8.9080    6.4040    3.0140 n         1 MOL     -0.729350
     84 O15        -7.6790    7.4570    1.5970 o         1 MOL     -0.580460
     85 H33        -6.3950    2.3410    0.7700 hn        1 MOL      0.135988
     86 H34        -5.5120    4.3150    0.2880 h1        1 MOL      0.132855
     87 H35        -8.1960    5.1030   -0.7530 hc        1 MOL     -0.051359
     88 H36        -6.8860    6.1260   -0.3290 hc        1 MOL     -0.051359
     89 H37        -6.9910    4.7090    1.8960 hc        1 MOL      0.059778
     90 H38        -8.6720    4.3940    1.4610 hc        1 MOL      0.059778
     91 H39        -9.5220    5.6510    3.3070 hn        1 MOL      0.332549
     92 H40        -9.0550    7.3200    3.4070 hn        1 MOL      0.332549
     93 N9         -5.0780    3.1690   -2.3400 n         1 MOL     -0.306979
     94 C30        -4.3550    3.1100   -3.5750 c3        1 MOL     -0.077485
     95 C31        -2.9110    2.6150   -3.4920 c         1 MOL      0.635390
     96 O16        -2.1660    2.8070   -4.4460 o         1 MOL     -0.613915
     97 C32        -5.1110    2.2490   -4.6670 c3        1 MOL      0.269544
     98 C33        -5.6190    0.8770   -4.1480 c3        1 MOL     -0.459680
     99 C34        -6.3960    3.0040   -5.1160 c3        1 MOL     -0.459680
    100 H41        -5.3380    2.3000   -1.8980 hn        1 MOL      0.298716
    101 H42        -4.2580    4.1010   -4.0150 h1        1 MOL      0.096838
    102 H43        -4.4770    2.0630   -5.5320 hc        1 MOL     -0.015435
    103 H44        -4.8370    0.4720   -3.5100 hc        1 MOL      0.112027
    104 H45        -6.3960    1.1220   -3.4230 hc        1 MOL      0.112027
    105 H46        -5.9720    0.3340   -5.0380 hc        1 MOL      0.112027
    106 H47        -7.2440    2.9970   -4.4350 hc        1 MOL      0.112027
    107 H48        -6.1630    4.0450   -5.3620 hc        1 MOL      0.112027
    108 H49        -6.7510    2.5050   -6.0180 hc        1 MOL      0.112027
    109 N10        -2.4960    2.0050   -2.3950 n         1 MOL     -0.538715
    110 C35        -1.1870    1.4140   -2.1300 c3        1 MOL      0.396849
    111 C36        -0.3820    2.0590   -1.0000 c         1 MOL      0.444168
    112 O17        -1.0200    2.6910   -0.1330 o         1 MOL     -0.520157
    113 C37        -1.3290   -0.0240   -1.7830 c3        1 MOL     -0.032179
    114 C38        -0.0460   -0.8530   -1.5600 c         1 MOL      0.472464
    115 N11        -0.1150   -1.7480   -0.6350 n         1 MOL     -0.840326
    116 O18         0.9830   -0.6080   -2.1930 o         1 MOL     -0.544230
    117 H50        -3.2070    1.9090   -1.6820 hn        1 MOL      0.211958
    118 H51        -0.5820    1.4360   -3.0350 h1        1 MOL     -0.018868
    119 H52        -1.8520   -0.4850   -2.6180 hc        1 MOL      0.019459
    120 H53        -1.8860   -0.0770   -0.8420 hc        1 MOL      0.019459
    121 H54        -0.9570   -1.8000   -0.0730 hn        1 MOL      0.411235
    122 H55         0.6410   -2.4220   -0.6190 hn        1 MOL      0.411235
    123 N12         0.9170    1.9510   -0.9780 n         1 MOL     -0.478052
    124 C39         1.7730    2.5100    0.0330 c3        1 MOL      0.274724
    125 C40         3.0100    3.0800   -0.5450 c         1 MOL      0.530908
    126 O19         3.4810    2.6060   -1.5740 o         1 MOL     -0.534615
    127 C41         2.0540    1.2850    0.9080 c3        1 MOL     -0.506875
    128 C42         2.9560    1.4660    2.1900 ca        1 MOL     -0.055125
    129 C43         2.4280    2.0510    3.3700 ca        1 MOL     -0.042721
    130 C44         4.3200    1.1360    2.1820 ca        1 MOL     -0.042721
    131 C45         3.1790    2.3720    4.5240 ca        1 MOL     -0.369581
    132 C46         5.1180    1.5460    3.2360 ca        1 MOL     -0.369581
    133 C47         4.5450    2.0620    4.4490 ca        1 MOL      0.492271
    134 O20         5.2830    2.1080    5.5450 oh        1 MOL     -0.581902
    135 H56         1.3380    1.3330   -1.6630 hn        1 MOL      0.247672
    136 H57         1.2430    3.2280    0.6620 h1        1 MOL      0.066200
    137 H58         2.5280    0.6130    0.2040 hc        1 MOL      0.220273
    138 H59         1.1880    0.7880    1.3310 hc        1 MOL      0.220273
    139 H60         1.3720    2.2100    3.2600 ha        1 MOL      0.143055
    140 H61         4.7930    0.6270    1.3530 ha        1 MOL      0.143055
    141 H62         2.7050    2.8920    5.3440 ha        1 MOL      0.150162
    142 H63         6.1840    1.4050    3.2520 ha        1 MOL      0.150162
    143 H64         4.8530    2.4140    6.3370 ho        1 MOL      0.404850
    144 N13         3.5350    4.1260    0.1350 n         1 MOL     -0.639281
    145 C48         4.8670    4.5680   -0.0820 c3        1 MOL      0.318321
    146 C49         5.5970    4.4320    1.2330 c         1 MOL      0.791017
    147 O21         5.1830    5.0120    2.1850 o         1 MOL     -0.612485
    148 C50         4.9370    5.9820   -0.6400 c3        1 MOL      0.083963
    149 C51         6.3820    6.4850   -0.8000 c3        1 MOL     -0.118600
    150 C52         6.4000    7.9210   -1.3130 c         1 MOL      0.669690
    151 O22         6.6960    8.8340   -0.5130 o         1 MOL     -0.714955
    152 O23         6.1460    8.0640   -2.5630 o         1 MOL     -0.714955
    153 H65         3.1870    4.5070    1.0030 hn        1 MOL      0.292874
    154 H66         5.4060    3.9020   -0.7500 h1        1 MOL     -0.059437
    155 H67         4.4410    6.7070    0.0180 hc        1 MOL     -0.018286
    156 H68         4.5070    6.0360   -1.6380 hc        1 MOL     -0.018286
    157 H69         6.9550    5.9020   -1.5260 hc        1 MOL     -0.003265
    158 H70         6.8720    6.3850    0.1660 hc        1 MOL     -0.003265
    159 N14         6.6760    3.6450    1.4270 n         1 MOL     -0.721430
    160 C53         7.2290    2.5070    0.6740 c3        1 MOL      0.317104
    161 C54         7.6300    2.8330   -0.7930 c         1 MOL      0.410729
    162 O24         8.2740    3.8760   -1.0110 o         1 MOL     -0.530657
    163 C55         8.4570    1.8940    1.2940 c3        1 MOL     -0.087434
    164 C56         9.0960    0.6760    0.6850 c3        1 MOL     -0.120467
    165 C57         8.1000   -0.4680    0.5840 c         1 MOL      0.721884
    166 O25         7.0370   -0.4230   -0.0050 o         1 MOL     -0.747304
    167 O26         8.3770   -1.5610    1.1760 o         1 MOL     -0.747304
    168 H71         7.1740    3.7260    2.2900 hn        1 MOL      0.311609
    169 H72         6.4500    1.7700    0.4540 h1        1 MOL     -0.025023
    170 H73         8.2110    1.5270    2.2910 hc        1 MOL      0.039768
    171 H74         9.1700    2.7120    1.3820 hc        1 MOL      0.039768
    172 H75        10.0620    0.3910    1.0840 hc        1 MOL      0.010482
    173 H76         9.3930    0.8810   -0.3440 hc        1 MOL      0.010482
    174 N15         7.2140    1.9800   -1.7570 n         1 MOL     -0.240139
    175 C58         7.3970    1.8990   -3.2220 c3        1 MOL      0.016596
    176 H77         8.0610    1.0680   -3.4600 h1        1 MOL      0.033280
    177 H78         6.4310    1.7390   -3.7010 h1        1 MOL      0.033280
    178 H79         7.8340    2.8290   -3.5860 h1        1 MOL      0.033280
    179 H80         6.9940    1.0520   -1.4090 hn        1 MOL      0.238429
    180 Ca1         6.3450   -2.9520   -0.0080 Ca        1 MOL      1.772766
    181 O27         8.6840   -3.6190   -1.2120 oh        1 MOL     -0.884345
    182 H81         9.4660   -3.9590   -0.7690 ho        1 MOL      0.411859
    183 H82         8.8230   -3.8150   -2.1310 ho        1 MOL      0.411859
    184 O28         5.9650   -1.7650   -2.3440 oh        1 MOL     -0.884345
    185 H83         5.6360   -0.9540   -2.7400 ho        1 MOL      0.411859
    186 H84         6.8010   -1.9280   -2.7790 ho        1 MOL      0.411859
    187 O29         5.7160   -2.3090    2.5640 oh        1 MOL     -0.884345
    188 H85         5.7630   -3.1000    3.0990 ho        1 MOL      0.411859
    189 H86         6.3000   -1.6880    3.0050 ho        1 MOL      0.411859
    190 O30         3.7570   -1.9900   -0.2780 oh        1 MOL     -0.884345
    191 H87         3.0220   -2.5050   -0.6100 ho        1 MOL      0.411859
    192 H88         3.3610   -1.1430   -0.0680 ho        1 MOL      0.411859
    193 O31         7.0670   -4.9930    1.6320 oh        1 MOL     -0.884345
    194 H89         7.6410   -5.1270    2.3800 ho        1 MOL      0.411859
    195 H90         6.2400   -5.3970    1.8810 ho        1 MOL      0.411859
@<TRIPOS>BOND
     1    1    2 1   
     2    1    4 1   
     3    1    5 1   
     4    1    6 1   
     5    2    3 2   
     6    2    7 1   
     7    7    8 1   
     8    7   15 1   
     9    8    9 1   
    10    8   11 1   
    11    8   16 1   
    12    9   10 2   
    13    9   19 1   
    14   11   12 1   
    15   11   17 1   
    16   11   18 1   
    17   12   13 1   
    18   12   14 1   
    19   19   20 1   
    20   19   27 1   
    21   20   21 1   
    22   20   23 1   
    23   20   28 1   
    24   21   22 2   
    25   21   38 1   
    26   23   24 1   
    27   23   25 1   
    28   23   29 1   
    29   24   26 1   
    30   24   30 1   
    31   24   31 1   
    32   25   32 1   
    33   25   33 1   
    34   25   34 1   
    35   26   35 1   
    36   26   36 1   
    37   26   37 1   
    38   38   39 1   
    39   38   46 1   
    40   39   40 1   
    41   39   42 1   
    42   39   47 1   
    43   40   41 2   
    44   40   50 1   
    45   42   43 1   
    46   42   48 1   
    47   42   49 1   
    48   43   44 1   
    49   43   45 1   
    50   50   51 1   
    51   50   54 1   
    52   51   52 1   
    53   51   55 1   
    54   51   56 1   
    55   52   53 2   
    56   52   57 1   
    57   57   58 1   
    58   57   65 1   
    59   58   59 1   
    60   58   61 1   
    61   58   66 1   
    62   59   60 2   
    63   59   69 1   
    64   61   62 1   
    65   61   67 1   
    66   61   68 1   
    67   62   63 1   
    68   62   64 1   
    69   69   70 1   
    70   69   73 1   
    71   70   71 1   
    72   70   74 1   
    73   70   75 1   
    74   71   72 2   
    75   71   76 1   
    76   76   77 1   
    77   76   85 1   
    78   77   78 1   
    79   77   80 1   
    80   77   86 1   
    81   78   79 2   
    82   78   93 1   
    83   80   81 1   
    84   80   87 1   
    85   80   88 1   
    86   81   82 1   
    87   81   89 1   
    88   81   90 1   
    89   82   83 1   
    90   82   84 2   
    91   83   91 1   
    92   83   92 1   
    93   93   94 1   
    94   93  100 1   
    95   94   95 1   
    96   94   97 1   
    97   94  101 1   
    98   95   96 2   
    99   95  109 1   
   100   97   98 1   
   101   97   99 1   
   102   97  102 1   
   103   98  103 1   
   104   98  104 1   
   105   98  105 1   
   106   99  106 1   
   107   99  107 1   
   108   99  108 1   
   109  109  110 1   
   110  109  117 1   
   111  110  111 1   
   112  110  113 1   
   113  110  118 1   
   114  111  112 2   
   115  111  123 1   
   116  113  114 1   
   117  113  119 1   
   118  113  120 1   
   119  114  115 1   
   120  114  116 2   
   121  115  121 1   
   122  115  122 1   
   123  123  124 1   
   124  123  135 1   
   125  124  125 1   
   126  124  127 1   
   127  124  136 1   
   128  125  126 2   
   129  125  144 1   
   130  127  128 1   
   131  127  137 1   
   132  127  138 1   
   133  128  129 ar  
   134  128  130 ar  
   135  129  131 ar  
   136  129  139 1   
   137  130  132 ar  
   138  130  140 1   
   139  131  133 ar  
   140  131  141 1   
   141  132  133 ar  
   142  132  142 1   
   143  133  134 1   
   144  134  143 1   
   145  144  145 1   
   146  144  153 1   
   147  145  146 1   
   148  145  148 1   
   149  145  154 1   
   150  146  147 2   
   151  146  159 1   
   152  148  149 1   
   153  148  155 1   
   154  148  156 1   
   155  149  150 1   
   156  149  157 1   
   157  149  158 1   
   158  150  151 1   
   159  150  152 1   
   160  159  160 1   
   161  159  168 1   
   162  160  161 1   
   163  160  163 1   
   164  160  169 1   
   165  161  162 2   
   166  161  174 1   
   167  163  164 1   
   168  163  170 1   
   169  163  171 1   
   170  164  165 1   
   171  164  172 1   
   172  164  173 1   
   173  165  166 1   
   174  165  167 1   
   175  174  175 1   
   176  174  179 1   
   177  175  176 1   
   178  175  177 1   
   179  175  178 1   
   180  181  182 1   
   181  181  183 1   
   182  184  185 1   
   183  184  186 1   
   184  187  188 1   
   185  187  189 1   
   186  190  191 1   
   187  190  192 1   
   188  193  194 1   
   189  193  195 1   
@<TRIPOS>SUBSTRUCTURE
     1 MOL         1 TEMP              0 ****  ****    0 ROOT
