@<TRIPOS>MOLECULE
MOL
  182   178     1     0     0
SMALL
resp


@<TRIPOS>ATOM
      1 C1         -6.2430    1.5370   -3.7910 c3        1 MOL     -0.421696
      2 C2         -6.7560    1.4440   -2.3500 c         1 MOL      0.780925
      3 O1         -6.0210    1.1110   -1.4420 o         1 MOL     -0.603549
      4 H1         -6.6510    0.7130   -4.3750 hc        1 MOL      0.111176
      5 H2         -6.5580    2.4840   -4.2290 hc        1 MOL      0.111176
      6 H3         -5.1540    1.4800   -3.7940 hc        1 MOL      0.111176
      7 N1         -8.0420    1.5860   -2.0940 n         1 MOL     -0.676418
      8 C3         -8.5520    1.3960   -0.7200 c3        1 MOL      0.152696
      9 C4         -8.3410    0.0500   -0.0690 c         1 MOL      0.458931
     10 O2         -8.5410   -0.1020    1.1710 o         1 MOL     -0.552154
     11 C5         -8.1180    2.5910    0.1620 c3        1 MOL     -0.181707
     12 C6         -8.3620    3.9090   -0.4960 c         1 MOL      0.686930
     13 O3         -7.6240    4.9220   -0.1850 o         1 MOL     -0.661735
     14 O4         -9.3040    4.1640   -1.3000 o         1 MOL     -0.661735
     15 H4         -8.7510    1.9230   -2.7170 hn        1 MOL      0.343374
     16 H5         -9.6120    1.6300   -0.7340 h1        1 MOL      0.022771
     17 H6         -7.0650    2.6120    0.4510 hc        1 MOL      0.071056
     18 H7         -8.6720    2.5170    1.1030 hc        1 MOL      0.071056
     19 N2         -7.8420   -0.9140   -0.7960 n         1 MOL     -0.445989
     20 C7         -7.6560   -2.2540   -0.2490 c3        1 MOL      0.072127
     21 C8         -6.1630   -2.5910   -0.5160 c         1 MOL      0.716289
     22 O5         -5.9170   -3.7500   -0.8130 o         1 MOL     -0.623905
     23 C9         -8.6660   -3.2650   -0.9590 c3        1 MOL     -0.314440
     24 C10       -10.0360   -3.0240   -0.2670 c3        1 MOL      0.019431
     25 C11       -11.0470   -3.9710   -0.9870 c3        1 MOL     -0.224288
     26 C12       -12.2850   -3.9450   -0.1910 c3        1 MOL      0.044407
     27 N3        -13.0310   -2.6960   -0.2570 n4        1 MOL     -0.447218
     28 H8         -7.5110   -0.6980   -1.7260 hn        1 MOL      0.273391
     29 H9         -7.6570   -2.2660    0.8400 h1        1 MOL      0.091727
     30 H10        -8.3670   -4.2960   -0.7460 hc        1 MOL      0.124764
     31 H11        -8.7480   -3.0120   -2.0110 hc        1 MOL      0.124764
     32 H12       -10.4640   -2.0260   -0.2230 hc        1 MOL      0.055474
     33 H13        -9.9350   -3.3320    0.7730 hc        1 MOL      0.055474
     34 H14       -10.5460   -4.9360   -1.0140 hc        1 MOL      0.109764
     35 H15       -11.4150   -3.7330   -1.9910 hc        1 MOL      0.109764
     36 H16       -12.0330   -4.0980    0.8620 hx        1 MOL      0.091892
     37 H17       -12.8670   -4.8640   -0.3160 hx        1 MOL      0.091892
     38 H18       -13.2660   -2.4370   -1.2070 hn        1 MOL      0.337408
     39 H19       -13.9280   -2.7540    0.2210 hn        1 MOL      0.337408
     40 H20       -12.5750   -1.9850    0.2980 hn        1 MOL      0.337408
     41 N4         -5.2400   -1.6480   -0.3800 n         1 MOL     -0.536580
     42 C13        -3.8380   -1.9790   -0.2470 c3        1 MOL     -0.021909
     43 C14        -3.5510   -2.1040    1.2800 c         1 MOL      0.298649
     44 O6         -3.9460   -1.2900    2.1160 o         1 MOL     -0.402675
     45 C15        -3.0540   -0.8570   -0.8510 c3        1 MOL      0.026643
     46 C16        -1.5160   -0.8980   -0.7670 c         1 MOL      0.451244
     47 O7         -0.8800   -0.8650   -1.8020 o         1 MOL     -0.640522
     48 O8         -0.9750   -1.0080    0.3290 o         1 MOL     -0.640522
     49 H21        -5.5170   -0.7340   -0.0720 hn        1 MOL      0.356076
     50 H22        -3.5050   -2.8520   -0.8150 h1        1 MOL      0.115755
     51 H23        -3.3480    0.0690   -0.3450 hc        1 MOL      0.057809
     52 H24        -3.2740   -0.6770   -1.8970 hc        1 MOL      0.057809
     53 N5         -3.1140   -3.2790    1.7140 n         1 MOL     -0.110753
     54 C17        -3.0930   -3.7490    3.1620 c3        1 MOL     -0.349087
     55 C18        -2.1990   -2.9700    4.1190 c         1 MOL      0.557075
     56 O9         -2.2350   -3.0850    5.3910 o         1 MOL     -0.566866
     57 H25        -2.8840   -3.9660    1.0190 hn        1 MOL      0.217375
     58 H26        -2.7000   -4.7650    3.2100 h1        1 MOL      0.160610
     59 H27        -4.1480   -3.7100    3.4250 h1        1 MOL      0.160610
     60 N6         -1.3810   -2.1660    3.5020 n         1 MOL     -0.166456
     61 C19        -0.5160   -1.1500    4.0840 c3        1 MOL      0.011392
     62 C20        -0.7720    0.2980    3.5880 c         1 MOL      0.449374
     63 O10        -0.0120    1.1430    3.9920 o         1 MOL     -0.507908
     64 C21         0.9590   -1.5380    4.2330 c3        1 MOL     -0.226215
     65 C22         1.6650   -1.8010    2.9180 c         1 MOL      0.607858
     66 N7          2.6130   -2.7260    2.8210 n         1 MOL     -0.768365
     67 O11         1.4130   -1.2020    1.9400 o         1 MOL     -0.568744
     68 H28        -1.5140   -2.1130    2.5020 hn        1 MOL      0.057897
     69 H29        -0.8260   -1.0850    5.1320 h1        1 MOL      0.096937
     70 H30         0.9980   -2.4390    4.8480 hc        1 MOL      0.088851
     71 H31         1.4960   -0.7340    4.7420 hc        1 MOL      0.088851
     72 H32         2.8850   -3.2920    3.6030 hn        1 MOL      0.354211
     73 H33         2.9950   -2.8160    1.8890 hn        1 MOL      0.354211
     74 N8         -1.8750    0.6060    2.8590 n         1 MOL     -0.145272
     75 C23        -2.2900    2.0080    2.7580 c3        1 MOL     -0.131496
     76 C24        -1.3330    2.8420    1.8530 c         1 MOL      0.433328
     77 O12        -1.3040    4.0780    2.0080 o         1 MOL     -0.521056
     78 H34        -2.5090   -0.1060    2.5300 hn        1 MOL      0.085932
     79 H35        -2.3540    2.4150    3.7640 h1        1 MOL      0.109261
     80 H36        -3.2900    2.0520    2.3130 h1        1 MOL      0.109261
     81 N9         -0.5990    2.2400    0.9420 n         1 MOL     -0.154341
     82 C25         0.2170    2.9500   -0.0230 c3        1 MOL      0.015408
     83 C26         1.5280    2.2520   -0.2540 c         1 MOL      0.433965
     84 O13         1.5850    0.9970   -0.2670 o         1 MOL     -0.479273
     85 C27        -0.6300    3.0350   -1.3160 c3        1 MOL      0.048586
     86 C28        -1.8980    3.7980   -1.0940 ca        1 MOL      0.140333
     87 C29        -1.7590    5.1810   -1.0510 ca        1 MOL     -0.350932
     88 C30        -3.1880    3.2660   -0.9470 ca        1 MOL     -0.350932
     89 C31        -2.9020    5.9640   -0.7550 ca        1 MOL     -0.084780
     90 C32        -4.3100    4.0790   -0.6720 ca        1 MOL     -0.084780
     91 C33        -4.1520    5.4230   -0.6030 ca        1 MOL      0.286636
     92 O14        -5.2340    6.2090   -0.4170 oh        1 MOL     -0.536253
     93 H37        -0.5470    1.2260    0.9900 hn        1 MOL      0.136402
     94 H38         0.4270    3.9550    0.3290 h1        1 MOL      0.042539
     95 H39        -0.9360    2.0490   -1.6610 hc        1 MOL     -0.010136
     96 H40        -0.0400    3.4560   -2.1320 hc        1 MOL     -0.010136
     97 H41        -0.7810    5.6290   -1.0410 ha        1 MOL      0.163627
     98 H42        -3.4550    2.2240   -1.0070 ha        1 MOL      0.163627
     99 H43        -2.8130    7.0410   -0.6980 ha        1 MOL      0.093055
    100 H44        -5.2950    3.6540   -0.4760 ha        1 MOL      0.093055
    101 H45        -6.0340    5.6750   -0.4110 ho        1 MOL      0.391560
    102 N10         2.5220    3.0080   -0.6640 n         1 MOL     -0.403900
    103 C34         3.8310    2.4260   -1.1180 c3        1 MOL     -0.199352
    104 C35         4.8160    2.2920    0.0440 c         1 MOL      0.533845
    105 O15         5.1840    1.1610    0.3300 o         1 MOL     -0.464312
    106 C36         4.4660    3.2820   -2.2490 c3        1 MOL      0.424121
    107 C37         3.5490    4.3180   -2.9680 c3        1 MOL     -0.158141
    108 C38         5.2660    2.2360   -3.0050 c3        1 MOL     -0.506300
    109 C39         2.4730    3.5860   -3.8540 c3        1 MOL     -0.112510
    110 H46         2.4140    4.0100   -0.6180 hn        1 MOL      0.306934
    111 H47         3.5700    1.4230   -1.4750 h1        1 MOL      0.097081
    112 H48         5.2380    3.9330   -1.8460 hc        1 MOL     -0.126778
    113 H49         4.1500    4.9200   -3.6410 hc        1 MOL      0.047307
    114 H50         3.0510    4.9630   -2.2520 hc        1 MOL      0.047307
    115 H51         5.4010    2.7820   -3.9430 hc        1 MOL      0.122596
    116 H52         6.1730    2.0570   -2.4370 hc        1 MOL      0.122596
    117 H53         4.7680    1.3110   -3.2760 hc        1 MOL      0.122596
    118 H54         2.4880    2.5220   -3.6060 hc        1 MOL      0.046943
    119 H55         1.5260    4.0940   -3.6820 hc        1 MOL      0.046943
    120 H56         2.6380    3.6850   -4.9260 hc        1 MOL      0.046943
    121 N11         5.2040    3.3680    0.7520 n         1 MOL     -0.267942
    122 C40         6.1460    3.3240    1.9140 c3        1 MOL     -0.031501
    123 C41         7.4560    2.5290    1.7440 c         1 MOL      0.333355
    124 O16         7.7540    1.8060    2.6730 o         1 MOL     -0.452369
    125 C42         6.6060    4.7520    2.2070 c3        1 MOL      0.147245
    126 O17         5.5530    5.4600    2.9070 oh        1 MOL     -0.567215
    127 H57         4.7060    4.2470    0.6840 hn        1 MOL      0.239481
    128 H58         5.5370    2.9460    2.7370 h1        1 MOL      0.144121
    129 H59         6.8790    5.3890    1.3570 h1        1 MOL      0.032171
    130 H60         7.4890    4.7030    2.8520 h1        1 MOL      0.032171
    131 H61         6.0480    6.1590    3.3520 ho        1 MOL      0.388904
    132 N12         8.0680    2.5390    0.5630 n         1 MOL     -0.346702
    133 C43         9.3020    1.8160    0.1240 c3        1 MOL      0.303808
    134 C44         9.2410    0.2750    0.4660 c         1 MOL      0.306634
    135 O18        10.2050   -0.4060    0.8420 o         1 MOL     -0.513440
    136 C45        10.5990    2.4830    0.7370 c3        1 MOL     -0.333991
    137 H62         7.6870    3.2230   -0.0910 hn        1 MOL      0.219714
    138 H63         9.3020    1.7920   -0.9710 h1        1 MOL      0.024896
    139 H64        10.5900    2.4810    1.8190 hc        1 MOL      0.098606
    140 H65        11.4750    2.0380    0.2780 hc        1 MOL      0.098606
    141 H66        10.5680    3.5280    0.4360 hc        1 MOL      0.098606
    142 N13         8.0660   -0.3770    0.4060 n         1 MOL     -0.077405
    143 C46         7.7560   -1.7960    0.6440 c3        1 MOL      0.180513
    144 C47         7.0230   -2.2860   -0.6110 c         1 MOL      0.320122
    145 O19         6.4360   -1.6070   -1.4070 o         1 MOL     -0.426563
    146 C48         6.9570   -1.8640    1.9370 c3        1 MOL     -0.090240
    147 H67         7.3420    0.0750   -0.1410 hn        1 MOL      0.011929
    148 H68         8.7110   -2.3010    0.7170 h1        1 MOL      0.032741
    149 H69         6.2200   -1.0550    1.9490 hc        1 MOL      0.033322
    150 H70         6.3230   -2.7520    1.8500 hc        1 MOL      0.033322
    151 H71         7.4710   -1.8900    2.9000 hc        1 MOL      0.033322
    152 N14         7.0460   -3.6100   -0.7280 n         1 MOL     -0.376145
    153 C49         6.3730   -4.3930   -1.7670 c3        1 MOL      0.205120
    154 C50         6.6690   -4.0030   -3.2270 c         1 MOL      0.317490
    155 O20         5.7730   -4.0080   -4.0580 o         1 MOL     -0.471187
    156 C51         4.8300   -4.6090   -1.5920 c3        1 MOL     -0.038377
    157 C52         4.3780   -5.1670   -0.2550 c3        1 MOL     -0.151855
    158 C53         2.8960   -4.8590    0.0300 c         1 MOL      0.667190
    159 O21         2.0670   -5.7530   -0.1140 o         1 MOL     -0.678074
    160 O22         2.6050   -3.6830    0.3390 o         1 MOL     -0.678074
    161 H72         7.4920   -4.1590   -0.0060 hn        1 MOL      0.252525
    162 H73         6.7500   -5.4090   -1.6770 h1        1 MOL      0.003773
    163 H74         4.4590   -5.3540   -2.3010 hc        1 MOL      0.028110
    164 H75         4.4100   -3.6060   -1.6870 hc        1 MOL      0.028110
    165 H76         4.9570   -4.6290    0.4960 hc        1 MOL      0.029091
    166 H77         4.5380   -6.2370   -0.3200 hc        1 MOL      0.029091
    167 N15         7.8670   -3.4040   -3.4830 n         1 MOL     -0.172980
    168 C54         8.3660   -2.7950   -4.7260 c3        1 MOL     -0.199297
    169 H78         8.0640   -3.4070   -5.5770 h1        1 MOL      0.100252
    170 H79         7.9500   -1.7940   -4.8350 h1        1 MOL      0.100252
    171 H80         9.4540   -2.7350   -4.6910 h1        1 MOL      0.100252
    172 H81         8.5640   -3.5900   -2.7780 hn        1 MOL      0.176991
    173 Ca1         1.3800   -1.6330   -0.6920 Ca        1 MOL      1.715740
    174 O23         0.6560   -3.8090   -1.8700 oh        1 MOL     -0.867944
    175 H82         0.7890   -4.5470   -1.2870 ho        1 MOL      0.427676
    176 H83         0.8590   -4.1490   -2.7400 ho        1 MOL      0.427676
    177 O24         3.8800   -1.1230   -0.3170 oh        1 MOL     -0.867944
    178 H84         4.7370   -1.2940   -0.7250 ho        1 MOL      0.427676
    179 H85         4.0340   -0.3550    0.2320 ho        1 MOL      0.427676
    180 O25         2.4160   -1.0950   -3.1680 oh        1 MOL     -0.867944
    181 H86         2.0270   -0.7240   -3.9550 ho        1 MOL      0.427676
    182 H87         3.2970   -1.3460   -3.4340 ho        1 MOL      0.427676
@<TRIPOS>BOND
     1    1    2 1   
     2    1    4 1   
     3    1    5 1   
     4    1    6 1   
     5    2    3 2   
     6    2    7 1   
     7    7    8 1   
     8    7   15 1   
     9    8    9 1   
    10    8   11 1   
    11    8   16 1   
    12    9   10 2   
    13    9   19 1   
    14   11   12 1   
    15   11   17 1   
    16   11   18 1   
    17   12   13 1   
    18   12   14 1   
    19   19   20 1   
    20   19   28 1   
    21   20   21 1   
    22   20   23 1   
    23   20   29 1   
    24   21   22 2   
    25   21   41 1   
    26   23   24 1   
    27   23   30 1   
    28   23   31 1   
    29   24   25 1   
    30   24   32 1   
    31   24   33 1   
    32   25   26 1   
    33   25   34 1   
    34   25   35 1   
    35   26   27 1   
    36   26   36 1   
    37   26   37 1   
    38   27   38 1   
    39   27   39 1   
    40   27   40 1   
    41   41   42 1   
    42   41   49 1   
    43   42   43 1   
    44   42   45 1   
    45   42   50 1   
    46   43   44 2   
    47   43   53 1   
    48   45   46 1   
    49   45   51 1   
    50   45   52 1   
    51   46   47 1   
    52   46   48 1   
    53   53   54 1   
    54   53   57 1   
    55   54   55 1   
    56   54   58 1   
    57   54   59 1   
    58   55   56 2   
    59   55   60 1   
    60   60   61 1   
    61   60   68 1   
    62   61   62 1   
    63   61   64 1   
    64   61   69 1   
    65   62   63 2   
    66   62   74 1   
    67   64   65 1   
    68   64   70 1   
    69   64   71 1   
    70   65   66 1   
    71   65   67 2   
    72   66   72 1   
    73   66   73 1   
    74   74   75 1   
    75   74   78 1   
    76   75   76 1   
    77   75   79 1   
    78   75   80 1   
    79   76   77 2   
    80   76   81 1   
    81   81   82 1   
    82   81   93 1   
    83   82   83 1   
    84   82   85 1   
    85   82   94 1   
    86   83   84 2   
    87   83  102 1   
    88   85   86 1   
    89   85   95 1   
    90   85   96 1   
    91   86   87 ar  
    92   86   88 ar  
    93   87   89 ar  
    94   87   97 1   
    95   88   90 ar  
    96   88   98 1   
    97   89   91 ar  
    98   89   99 1   
    99   90   91 ar  
   100   90  100 1   
   101   91   92 1   
   102   92  101 1   
   103  102  103 1   
   104  102  110 1   
   105  103  104 1   
   106  103  106 1   
   107  103  111 1   
   108  104  105 2   
   109  104  121 1   
   110  106  107 1   
   111  106  108 1   
   112  106  112 1   
   113  107  109 1   
   114  107  113 1   
   115  107  114 1   
   116  108  115 1   
   117  108  116 1   
   118  108  117 1   
   119  109  118 1   
   120  109  119 1   
   121  109  120 1   
   122  121  122 1   
   123  121  127 1   
   124  122  123 1   
   125  122  125 1   
   126  122  128 1   
   127  123  124 2   
   128  123  132 1   
   129  125  126 1   
   130  125  129 1   
   131  125  130 1   
   132  126  131 1   
   133  132  133 1   
   134  132  137 1   
   135  133  134 1   
   136  133  136 1   
   137  133  138 1   
   138  134  135 2   
   139  134  142 1   
   140  136  139 1   
   141  136  140 1   
   142  136  141 1   
   143  142  143 1   
   144  142  147 1   
   145  143  144 1   
   146  143  146 1   
   147  143  148 1   
   148  144  145 2   
   149  144  152 1   
   150  146  149 1   
   151  146  150 1   
   152  146  151 1   
   153  152  153 1   
   154  152  161 1   
   155  153  154 1   
   156  153  156 1   
   157  153  162 1   
   158  154  155 2   
   159  154  167 1   
   160  156  157 1   
   161  156  163 1   
   162  156  164 1   
   163  157  158 1   
   164  157  165 1   
   165  157  166 1   
   166  158  159 1   
   167  158  160 1   
   168  167  168 1   
   169  167  172 1   
   170  168  169 1   
   171  168  170 1   
   172  168  171 1   
   173  174  175 1   
   174  174  176 1   
   175  177  178 1   
   176  177  179 1   
   177  180  181 1   
   178  180  182 1   
@<TRIPOS>SUBSTRUCTURE
     1 MOL         1 TEMP              0 ****  ****    0 ROOT
