@<TRIPOS>MOLECULE
MOL
  178   175     1     0     0
SMALL
resp


@<TRIPOS>ATOM
      1 C1         -7.6040    7.3100    1.1310 c3        1 MOL     -0.422676
      2 C2         -8.4050    6.3670    0.2430 c         1 MOL      0.812717
      3 O1         -8.4290    6.4760   -0.9560 o         1 MOL     -0.633320
      4 H1         -7.8390    8.3420    0.8710 hc        1 MOL      0.098325
      5 H2         -7.8600    7.1310    2.1750 hc        1 MOL      0.098325
      6 H3         -6.5390    7.1320    0.9830 hc        1 MOL      0.098325
      7 N1         -9.0450    5.3230    0.7620 n         1 MOL     -0.651888
      8 C3         -9.9680    4.4410   -0.0130 c3        1 MOL      0.323575
      9 C4         -9.2050    3.2210   -0.6310 c         1 MOL      0.492402
     10 O2         -9.9000    2.3530   -1.2150 o         1 MOL     -0.596954
     11 C5        -11.0960    3.9440    0.7620 c3        1 MOL     -0.267761
     12 C6        -12.0420    4.9800    1.3750 c         1 MOL      0.681892
     13 O3        -13.0300    4.6030    2.0030 o         1 MOL     -0.725197
     14 O4        -11.8940    6.2160    1.1030 o         1 MOL     -0.725197
     15 H4         -8.8900    4.9890    1.7070 hn        1 MOL      0.304180
     16 H5        -10.3830    4.9570   -0.8790 h1        1 MOL      0.043456
     17 H6        -10.7060    3.2140    1.4750 hc        1 MOL      0.045008
     18 H7        -11.7600    3.3260    0.1750 hc        1 MOL      0.045008
     19 N2         -7.9000    3.1550   -0.5230 n         1 MOL     -0.571452
     20 C7         -7.0810    2.1690   -1.2290 c3        1 MOL      0.548073
     21 C8         -5.8360    1.7940   -0.3570 c         1 MOL      0.286884
     22 O5         -5.4010    2.6230    0.3950 o         1 MOL     -0.499771
     23 C9         -6.5910    2.7890   -2.5970 c3        1 MOL     -0.235369
     24 H8         -7.3620    3.9460   -0.1900 hn        1 MOL      0.259859
     25 H9         -7.6820    1.3020   -1.5070 h1        1 MOL     -0.069855
     26 H10        -5.8680    3.5970   -2.5160 hc        1 MOL      0.064046
     27 H11        -6.2710    1.9590   -3.2420 hc        1 MOL      0.064046
     28 H12        -7.4540    3.2390   -3.0730 hc        1 MOL      0.064046
     29 N3         -5.1500    0.6900   -0.5600 n         1 MOL     -0.266017
     30 C10        -5.4030   -0.3660   -1.5850 c3        1 MOL     -0.187344
     31 C11        -5.5360   -1.7320   -0.8980 c         1 MOL      0.471787
     32 O6         -4.8680   -1.9930    0.1270 o         1 MOL     -0.505803
     33 C12        -4.3960   -0.4590   -2.7220 c3        1 MOL     -0.127460
     34 C13        -2.9890   -0.6830   -2.1940 c         1 MOL      0.529587
     35 O7         -2.4060    0.3250   -1.7440 o         1 MOL     -0.601648
     36 O8         -2.4640   -1.8130   -2.2960 o         1 MOL     -0.601648
     37 H13        -4.3360    0.6490    0.0350 hn        1 MOL      0.288335
     38 H14        -6.3530   -0.1730   -2.0900 h1        1 MOL      0.133200
     39 H15        -4.3380    0.4690   -3.2920 hc        1 MOL      0.044419
     40 H16        -4.6600   -1.2750   -3.4070 hc        1 MOL      0.044419
     41 N4         -6.3370   -2.6400   -1.4570 n         1 MOL     -0.385355
     42 C14        -6.3860   -4.0570   -1.1110 c3        1 MOL      0.092557
     43 C15        -5.8350   -4.9780   -2.1530 c         1 MOL      0.429433
     44 O9         -6.4840   -5.4100   -3.1260 o         1 MOL     -0.567477
     45 H17        -6.8670   -2.4450   -2.2940 hn        1 MOL      0.298264
     46 H18        -7.4500   -4.2880   -1.0220 h1        1 MOL      0.051569
     47 H19        -6.1230   -4.2900   -0.0710 h1        1 MOL      0.051569
     48 N5         -4.5530   -5.2930   -2.1860 n         1 MOL     -0.344108
     49 C16        -3.4620   -4.7960   -1.3070 c3        1 MOL     -0.049282
     50 C17        -3.6190   -5.3840    0.1170 c         1 MOL      0.418725
     51 O10        -3.5810   -6.5770    0.4010 o         1 MOL     -0.526460
     52 C18        -2.1780   -5.2470   -2.0770 c3        1 MOL     -0.037179
     53 C19        -0.9660   -4.6110   -1.4840 c         1 MOL      0.747993
     54 N6          0.1890   -5.0990   -1.9150 n         1 MOL     -0.677768
     55 O11        -1.0480   -3.7410   -0.6340 o         1 MOL     -0.807041
     56 H20        -4.2760   -5.9360   -2.9220 hn        1 MOL      0.287982
     57 H21        -3.4610   -3.7170   -1.1930 h1        1 MOL      0.134704
     58 H22        -2.1320   -4.7740   -3.0590 hc        1 MOL      0.010890
     59 H23        -2.0840   -6.3300   -2.1120 hc        1 MOL      0.010890
     60 H24         0.3220   -5.8140   -2.6160 hn        1 MOL      0.322296
     61 H25         0.9820   -4.5370   -1.6180 hn        1 MOL      0.322296
     62 N7         -3.7600   -4.5420    1.1590 n         1 MOL     -0.153254
     63 C20        -3.4550   -4.9320    2.5700 c3        1 MOL     -0.364066
     64 C21        -2.0120   -4.9630    2.9880 c         1 MOL      0.641614
     65 O12        -1.8300   -5.6370    4.0020 o         1 MOL     -0.588430
     66 H26        -3.9680   -3.5950    0.8890 hn        1 MOL      0.193049
     67 H27        -3.8760   -5.9200    2.7380 h1        1 MOL      0.147782
     68 H28        -3.9290   -4.2180    3.2470 h1        1 MOL      0.147782
     69 N8         -1.0280   -4.5390    2.2470 n         1 MOL     -0.387535
     70 C22         0.4130   -4.4960    2.6040 c3        1 MOL     -0.138522
     71 C23         1.0870   -3.1550    2.3000 c         1 MOL      0.432720
     72 O13         0.7400   -2.4530    1.2920 o         1 MOL     -0.484013
     73 C24         1.3450   -5.6010    1.9870 c3        1 MOL      0.587035
     74 C25         1.0900   -7.0310    2.5320 c3        1 MOL     -0.666934
     75 O14         1.2060   -5.6880    0.6000 oh        1 MOL     -0.662375
     76 H29        -1.2290   -4.2270    1.3070 hn        1 MOL      0.402452
     77 H30         0.5170   -4.6690    3.6800 h1        1 MOL      0.076398
     78 H31         2.3740   -5.3730    2.2450 h1        1 MOL     -0.048171
     79 H32         1.3570   -4.8190    0.2180 ho        1 MOL      0.407240
     80 H33         1.0330   -7.1040    3.6220 hc        1 MOL      0.176497
     81 H34         0.1090   -7.3070    2.1670 hc        1 MOL      0.176497
     82 H35         1.8240   -7.7420    2.1520 hc        1 MOL      0.176497
     83 N9          2.0950   -2.7410    3.0690 n         1 MOL     -0.391294
     84 C26         3.0800   -1.7740    2.6180 c3        1 MOL     -0.029501
     85 C27         4.0920   -2.4940    1.7430 c         1 MOL      0.513280
     86 O15         4.6770   -3.5410    2.1000 o         1 MOL     -0.541888
     87 C28         3.6290   -1.0330    3.8450 c3        1 MOL     -0.065068
     88 C29         2.5890   -0.0000    4.3370 c3        1 MOL      0.221570
     89 C30         4.0490   -1.9580    5.0480 c3        1 MOL     -0.039042
     90 C31         3.0050    0.7520    5.5540 c3        1 MOL     -0.335544
     91 H36         2.4100   -3.3310    3.8310 hn        1 MOL      0.260480
     92 H37         2.5530   -1.0530    1.9910 h1        1 MOL      0.084803
     93 H38         4.5570   -0.4890    3.6370 hc        1 MOL      0.043681
     94 H39         1.6400   -0.4820    4.5860 hc        1 MOL     -0.017403
     95 H40         2.4050    0.6200    3.4570 hc        1 MOL     -0.017403
     96 H41         3.2150   -2.4060    5.5870 hc        1 MOL      0.012114
     97 H42         4.5840   -2.8160    4.6400 hc        1 MOL      0.012114
     98 H43         4.6840   -1.5330    5.8160 hc        1 MOL      0.012114
     99 H44         2.8380    0.1470    6.4460 hc        1 MOL      0.074010
    100 H45         4.0610    1.0210    5.5610 hc        1 MOL      0.074010
    101 H46         2.3270    1.5980    5.6420 hc        1 MOL      0.074010
    102 N10         4.2780   -1.9410    0.5300 n         1 MOL     -0.356335
    103 C32         5.0860   -2.4940   -0.5800 c3        1 MOL      0.083138
    104 C33         5.9280   -1.4730   -1.3210 c         1 MOL      0.482921
    105 O16         6.4360   -1.7300   -2.3830 o         1 MOL     -0.542593
    106 C34         4.2340   -3.3700   -1.4690 c3        1 MOL     -0.015350
    107 C35         2.9360   -2.7310   -1.8840 c         1 MOL      0.595563
    108 O17         1.8420   -2.9590   -1.3380 o         1 MOL     -0.661431
    109 O18         3.0810   -1.8680   -2.8500 o         1 MOL     -0.661431
    110 H47         3.6130   -1.2140    0.3050 hn        1 MOL      0.224201
    111 H48         5.8810   -3.1550   -0.2270 h1        1 MOL      0.051560
    112 H49         3.9810   -4.2400   -0.8590 hc        1 MOL     -0.001507
    113 H50         4.8080   -3.7260   -2.3290 hc        1 MOL     -0.001507
    114 N11         6.0420   -0.3500   -0.6970 n         1 MOL     -0.285895
    115 C36         7.0190    0.6830   -1.0820 c3        1 MOL      0.200214
    116 C37         6.7170    2.0440   -0.4410 c         1 MOL      0.353624
    117 O19         6.3310    2.0480    0.7200 o         1 MOL     -0.517742
    118 C38         8.4510    0.4100   -0.5760 c3        1 MOL     -0.295855
    119 C39         9.5200    1.3880   -1.0670 ca        1 MOL      0.225996
    120 C40        10.0090    2.4230   -0.2180 ca        1 MOL     -0.243601
    121 C41        10.1810    1.1940   -2.2890 ca        1 MOL     -0.243601
    122 C42        11.0580    3.3000   -0.6150 ca        1 MOL     -0.070491
    123 C43        11.3710    1.9850   -2.5460 ca        1 MOL     -0.070491
    124 C44        11.8130    3.0420   -1.7720 ca        1 MOL     -0.144739
    125 H51         5.6120   -0.3080    0.2200 hn        1 MOL      0.166866
    126 H52         6.9720    0.8270   -2.1600 h1        1 MOL      0.027413
    127 H53         8.8030   -0.5680   -0.8780 hc        1 MOL      0.100645
    128 H54         8.4700    0.4850    0.5120 hc        1 MOL      0.100645
    129 H55         9.5940    2.5900    0.7750 ha        1 MOL      0.150581
    130 H56         9.8750    0.3990   -2.9550 ha        1 MOL      0.150581
    131 H57        11.2820    4.1010    0.0780 ha        1 MOL      0.091924
    132 H58        12.0150    1.7410   -3.3820 ha        1 MOL      0.091924
    133 H59        12.6930    3.6340   -1.9780 ha        1 MOL      0.118256
    134 N12         6.7940    3.1740   -1.0890 n         1 MOL     -0.083434
    135 C45         6.7210    4.4830   -0.3940 c3        1 MOL     -0.005417
    136 C46         5.2910    5.0020   -0.1190 c         1 MOL      0.427722
    137 O20         5.1980    6.2110    0.0660 o         1 MOL     -0.507583
    138 C47         7.5710    5.3730   -1.3130 c3        1 MOL     -0.031192
    139 C48         7.3800    4.8110   -2.7030 c3        1 MOL      0.034596
    140 C49         7.3290    3.3110   -2.4790 c3        1 MOL     -0.121250
    141 H60         7.2610    4.3730    0.5530 h1        1 MOL      0.071437
    142 H61         7.3240    6.4290   -1.2370 hc        1 MOL      0.023261
    143 H62         8.6140    5.1230   -1.0690 hc        1 MOL      0.023261
    144 H63         6.4460    5.0620   -3.1860 hc        1 MOL      0.017968
    145 H64         8.1830    5.1700   -3.3400 hc        1 MOL      0.017968
    146 H65         6.6190    3.0240   -3.2460 h1        1 MOL      0.075269
    147 H66         8.3180    2.8810   -2.6490 h1        1 MOL      0.075269
    148 N13         4.2410    4.1970   -0.0680 n         1 MOL     -0.202530
    149 C50         2.8810    4.6590    0.4230 c3        1 MOL     -0.283590
    150 C51         2.7680    5.1880    1.8480 c         1 MOL      0.514109
    151 O21         1.9970    6.1250    2.1600 o         1 MOL     -0.509593
    152 C52         1.9000    3.5520    0.0380 c3        1 MOL     -0.124075
    153 C53         2.2580    2.2320    0.8390 c3        1 MOL      0.151037
    154 C54         1.4940    0.9960    0.3070 c         1 MOL      0.663376
    155 O22         2.2320    0.1120   -0.2160 o         1 MOL     -0.709104
    156 O23         0.2250    0.9650    0.4910 o         1 MOL     -0.709104
    157 H67         4.4770    3.2200   -0.0450 hn        1 MOL      0.134700
    158 H68         2.6690    5.4340   -0.3220 h1        1 MOL      0.173976
    159 H69         2.0050    3.4760   -1.0440 hc        1 MOL      0.093431
    160 H70         0.8710    3.6790    0.3810 hc        1 MOL      0.093431
    161 H71         1.9940    2.2410    1.8900 hc        1 MOL     -0.045828
    162 H72         3.3350    2.0560    0.8380 hc        1 MOL     -0.045828
    163 N14         3.5700    4.6580    2.8050 n         1 MOL     -0.186865
    164 C55         3.7570    5.2350    4.1700 c3        1 MOL     -0.279299
    165 H73         3.9250    6.3090    4.0900 h1        1 MOL      0.113412
    166 H74         2.8660    5.0510    4.7690 h1        1 MOL      0.113412
    167 H75         4.6190    4.7690    4.6470 h1        1 MOL      0.113412
    168 H76         4.1120    3.8350    2.6080 hn        1 MOL      0.218573
    169 Ca1        -0.0640   -1.2080   -1.0470 Ca        1 MOL      1.730153
    170 O24         0.0520   -1.9090   -3.6940 oh        1 MOL     -0.827524
    171 H77         0.2570   -2.7470   -4.1030 ho        1 MOL      0.398275
    172 H78        -0.3420   -1.3860   -4.3930 ho        1 MOL      0.398275
    173 O25        -2.1970   -1.5570    0.8870 oh        1 MOL     -0.827524
    174 H79        -2.1260   -1.2950    1.8000 ho        1 MOL      0.398275
    175 H80        -3.1360   -1.6700    0.7480 ho        1 MOL      0.398275
    176 O26         0.5040    0.8290   -2.5160 oh        1 MOL     -0.827524
    177 H81         0.0240    0.8990   -3.3420 ho        1 MOL      0.398275
    178 H82         1.4040    0.6650   -2.7810 ho        1 MOL      0.398275
@<TRIPOS>BOND
     1    1    2 1   
     2    1    4 1   
     3    1    5 1   
     4    1    6 1   
     5    2    3 2   
     6    2    7 1   
     7    7    8 1   
     8    7   15 1   
     9    8    9 1   
    10    8   11 1   
    11    8   16 1   
    12    9   10 2   
    13    9   19 1   
    14   11   12 1   
    15   11   17 1   
    16   11   18 1   
    17   12   13 1   
    18   12   14 1   
    19   19   20 1   
    20   19   24 1   
    21   20   21 1   
    22   20   23 1   
    23   20   25 1   
    24   21   22 2   
    25   21   29 1   
    26   23   26 1   
    27   23   27 1   
    28   23   28 1   
    29   29   30 1   
    30   29   37 1   
    31   30   31 1   
    32   30   33 1   
    33   30   38 1   
    34   31   32 2   
    35   31   41 1   
    36   33   34 1   
    37   33   39 1   
    38   33   40 1   
    39   34   35 1   
    40   34   36 1   
    41   41   42 1   
    42   41   45 1   
    43   42   43 1   
    44   42   46 1   
    45   42   47 1   
    46   43   44 2   
    47   43   48 1   
    48   48   49 1   
    49   48   56 1   
    50   49   50 1   
    51   49   52 1   
    52   49   57 1   
    53   50   51 2   
    54   50   62 1   
    55   52   53 1   
    56   52   58 1   
    57   52   59 1   
    58   53   54 1   
    59   53   55 2   
    60   54   60 1   
    61   54   61 1   
    62   62   63 1   
    63   62   66 1   
    64   63   64 1   
    65   63   67 1   
    66   63   68 1   
    67   64   65 2   
    68   64   69 1   
    69   69   70 1   
    70   69   76 1   
    71   70   71 1   
    72   70   73 1   
    73   70   77 1   
    74   71   72 2   
    75   71   83 1   
    76   73   74 1   
    77   73   75 1   
    78   73   78 1   
    79   74   80 1   
    80   74   81 1   
    81   74   82 1   
    82   75   79 1   
    83   83   84 1   
    84   83   91 1   
    85   84   85 1   
    86   84   87 1   
    87   84   92 1   
    88   85   86 2   
    89   85  102 1   
    90   87   88 1   
    91   87   89 1   
    92   87   93 1   
    93   88   90 1   
    94   88   94 1   
    95   88   95 1   
    96   89   96 1   
    97   89   97 1   
    98   89   98 1   
    99   90   99 1   
   100   90  100 1   
   101   90  101 1   
   102  102  103 1   
   103  102  110 1   
   104  103  104 1   
   105  103  106 1   
   106  103  111 1   
   107  104  105 2   
   108  104  114 1   
   109  106  107 1   
   110  106  112 1   
   111  106  113 1   
   112  107  108 1   
   113  107  109 1   
   114  114  115 1   
   115  114  125 1   
   116  115  116 1   
   117  115  118 1   
   118  115  126 1   
   119  116  117 2   
   120  116  134 1   
   121  118  119 1   
   122  118  127 1   
   123  118  128 1   
   124  119  120 ar  
   125  119  121 ar  
   126  120  122 ar  
   127  120  129 1   
   128  121  123 ar  
   129  121  130 1   
   130  122  124 ar  
   131  122  131 1   
   132  123  124 ar  
   133  123  132 1   
   134  124  133 1   
   135  134  135 1   
   136  134  140 1   
   137  135  136 1   
   138  135  138 1   
   139  135  141 1   
   140  136  137 2   
   141  136  148 1   
   142  138  139 1   
   143  138  142 1   
   144  138  143 1   
   145  139  140 1   
   146  139  144 1   
   147  139  145 1   
   148  140  146 1   
   149  140  147 1   
   150  148  149 1   
   151  148  157 1   
   152  149  150 1   
   153  149  152 1   
   154  149  158 1   
   155  150  151 2   
   156  150  163 1   
   157  152  153 1   
   158  152  159 1   
   159  152  160 1   
   160  153  154 1   
   161  153  161 1   
   162  153  162 1   
   163  154  155 1   
   164  154  156 1   
   165  163  164 1   
   166  163  168 1   
   167  164  165 1   
   168  164  166 1   
   169  164  167 1   
   170  170  171 1   
   171  170  172 1   
   172  173  174 1   
   173  173  175 1   
   174  176  177 1   
   175  176  178 1   
@<TRIPOS>SUBSTRUCTURE
     1 MOL         1 TEMP              0 ****  ****    0 ROOT
