@<TRIPOS>MOLECULE
MOL
  198   191     1     0     0
SMALL
resp


@<TRIPOS>ATOM
      1 C1        -12.5240    3.8750    4.1890 c3        1 MOL     -0.352228
      2 C2        -11.8200    2.8060    3.3530 c         1 MOL      0.610339
      3 O1        -11.8170    1.6100    3.6600 o         1 MOL     -0.571815
      4 H1        -11.7800    4.4550    4.7350 hc        1 MOL      0.099881
      5 H2        -13.0900    4.5360    3.5330 hc        1 MOL      0.099881
      6 H3        -13.2010    3.3960    4.8960 hc        1 MOL      0.099881
      7 N1        -11.2310    3.0990    2.1300 n         1 MOL     -0.240389
      8 C3        -10.7280    2.0890    1.1620 c3        1 MOL     -0.498727
      9 C4         -9.2560    1.8030    1.1740 c         1 MOL      0.819302
     10 O2         -8.4090    2.6580    1.3530 o         1 MOL     -0.739378
     11 C5        -11.3670    2.3590   -0.1620 c3        1 MOL      0.096859
     12 C6        -11.0210    3.7660   -0.7020 c         1 MOL      0.523129
     13 O3         -9.9440    4.2870   -0.3850 o         1 MOL     -0.630114
     14 O4        -11.7310    4.2490   -1.5670 o         1 MOL     -0.630114
     15 H4        -11.0450    4.0650    1.8650 hn        1 MOL      0.183471
     16 H5        -11.1640    1.1580    1.5120 h1        1 MOL      0.179156
     17 H6        -12.4540    2.4620   -0.1250 hc        1 MOL      0.040151
     18 H7        -11.1930    1.6480   -0.9730 hc        1 MOL      0.040151
     19 N2         -8.9860    0.5100    0.9690 n         1 MOL     -0.425127
     20 C7         -7.6800   -0.1740    1.0910 c3        1 MOL      0.075674
     21 C8         -6.8330   -0.2470   -0.2110 c         1 MOL      0.420960
     22 O5         -5.6370   -0.5870   -0.2870 o         1 MOL     -0.547111
     23 C9         -7.8440   -1.5870    1.7430 c3        1 MOL     -0.000221
     24 C10        -6.6160   -2.4280    2.1270 c3        1 MOL      0.218821
     25 C11        -6.8480   -3.7720    2.7520 c3        1 MOL     -0.019263
     26 C12        -7.6610   -3.7580    4.1050 c3        1 MOL      0.134892
     27 N3         -7.9710   -5.1290    4.5600 n4        1 MOL     -0.348102
     28 H8         -9.8190   -0.0470    0.8740 hn        1 MOL      0.260620
     29 H9         -7.0880    0.3610    1.8430 h1        1 MOL      0.063746
     30 H10        -8.4680   -2.2440    1.1290 hc        1 MOL      0.003707
     31 H11        -8.4170   -1.4110    2.6470 hc        1 MOL      0.003707
     32 H12        -6.1050   -1.7920    2.8410 hc        1 MOL     -0.071635
     33 H13        -5.9920   -2.4450    1.2280 hc        1 MOL     -0.071635
     34 H14        -5.8590   -4.1840    2.9540 hc        1 MOL      0.026493
     35 H15        -7.3920   -4.4100    2.0420 hc        1 MOL      0.026493
     36 H16        -8.5800   -3.1920    3.9850 hx        1 MOL      0.029417
     37 H17        -7.0370   -3.2500    4.8440 hx        1 MOL      0.029417
     38 H18        -8.4010   -5.6280    3.7870 hn        1 MOL      0.293166
     39 H19        -7.2380   -5.6810    4.9890 hn        1 MOL      0.293166
     40 H20        -8.7130   -5.1240    5.2410 hn        1 MOL      0.293166
     41 N4         -7.3940    0.2210   -1.3200 n         1 MOL     -0.146242
     42 C13        -6.7460   -0.0570   -2.6200 c3        1 MOL      0.047375
     43 C14        -5.4550    0.7870   -2.9080 c         1 MOL      0.649248
     44 O6         -5.4720    1.9940   -2.7520 o         1 MOL     -0.643191
     45 C15        -7.7390    0.0540   -3.7240 c3        1 MOL     -0.202090
     46 C16        -8.9120   -0.9200   -3.5090 c         1 MOL      0.732082
     47 O7         -8.8440   -2.0960   -3.8500 o         1 MOL     -0.664607
     48 O8        -10.0120   -0.4640   -3.0750 o         1 MOL     -0.664607
     49 H21        -8.4010    0.2920   -1.2680 hn        1 MOL      0.093469
     50 H22        -6.6320   -1.1320   -2.5240 h1        1 MOL      0.072770
     51 H23        -7.2120   -0.0990   -4.6660 hc        1 MOL      0.035605
     52 H24        -8.0970    1.0840   -3.8050 hc        1 MOL      0.035605
     53 N5         -4.3100    0.2740   -3.3820 n         1 MOL     -0.460785
     54 C17        -4.1060   -1.1360   -3.6660 c3        1 MOL     -0.016469
     55 C18        -3.9700   -2.0230   -2.4370 c         1 MOL      0.442561
     56 O9         -3.1110   -1.7720   -1.5660 o         1 MOL     -0.463646
     57 H25        -3.5790    0.9120   -3.6580 hn        1 MOL      0.325567
     58 H26        -3.2010   -1.3440   -4.2330 h1        1 MOL      0.067853
     59 H27        -4.8930   -1.4390   -4.3620 h1        1 MOL      0.067853
     60 N6         -4.8810   -3.0530   -2.2790 n         1 MOL     -0.155677
     61 C19        -4.9660   -3.9410   -1.1300 c3        1 MOL     -0.234511
     62 C20        -3.7150   -4.8340   -0.9600 c         1 MOL      0.457846
     63 O10        -3.5040   -5.5200    0.0580 o         1 MOL     -0.500512
     64 C21        -6.1370   -4.9200   -1.3140 c3        1 MOL     -0.231948
     65 C22        -6.1510   -5.8210   -2.5970 c         1 MOL      0.805100
     66 O11        -5.6750   -5.4350   -3.6700 o         1 MOL     -0.679455
     67 O12        -6.7010   -6.9300   -2.5400 o         1 MOL     -0.679455
     68 H28        -5.4500   -3.3270   -3.0660 hn        1 MOL      0.176610
     69 H29        -5.1760   -3.4100   -0.1990 h1        1 MOL      0.178062
     70 H30        -7.0970   -4.4020   -1.3900 hc        1 MOL      0.053224
     71 H31        -6.1150   -5.6080   -0.4630 hc        1 MOL      0.053224
     72 N7         -2.7430   -4.8070   -1.8980 n         1 MOL     -0.239771
     73 C23        -1.4230   -5.3000   -1.8680 c3        1 MOL     -0.043515
     74 C24        -0.4760   -4.7480   -0.7660 c         1 MOL      0.381985
     75 O13         0.4600   -5.4090   -0.3270 o         1 MOL     -0.538992
     76 H32        -2.9750   -4.2970   -2.7440 hn        1 MOL      0.199773
     77 H33        -0.9400   -5.2270   -2.8450 h1        1 MOL      0.086901
     78 H34        -1.4330   -6.3750   -1.7390 h1        1 MOL      0.086901
     79 N8         -0.7010   -3.5450   -0.1840 n         1 MOL     -0.105593
     80 C25        -0.0050   -2.9200    0.9480 c3        1 MOL      0.293020
     81 C26         0.6310   -1.6060    0.5530 c         1 MOL      0.136159
     82 O14         0.3530   -0.9980   -0.4800 o         1 MOL     -0.451300
     83 C27        -0.9690   -2.6980    2.1790 c3        1 MOL      0.204712
     84 C28        -2.3180   -2.1230    1.8050 c3        1 MOL     -0.321611
     85 O15        -1.1470   -3.8910    2.8350 oh        1 MOL     -0.622182
     86 H35        -1.3800   -2.9760   -0.6830 hn        1 MOL      0.054758
     87 H36         0.8340   -3.5640    1.2050 h1        1 MOL      0.011755
     88 H37        -0.4520   -2.0160    2.8550 h1        1 MOL      0.001736
     89 H38        -1.7060   -3.7160    3.5870 ho        1 MOL      0.397296
     90 H39        -2.2300   -1.2750    1.1370 hc        1 MOL      0.087656
     91 H40        -2.9660   -2.8500    1.3230 hc        1 MOL      0.087656
     92 H41        -2.8680   -1.8190    2.6940 hc        1 MOL      0.087656
     93 N9          1.5690   -1.1650    1.4120 n         1 MOL     -0.053127
     94 C29         2.2720    0.1000    1.2540 c3        1 MOL      0.003778
     95 C30         3.6590   -0.0810    0.4730 c         1 MOL      0.399481
     96 O16         3.9670    0.9090   -0.2360 o         1 MOL     -0.535494
     97 C31         2.4410    0.6970    2.6800 c3        1 MOL      0.251419
     98 C32         1.1300    0.7690    3.4080 c3        1 MOL      0.043890
     99 C33         3.0740    2.1490    2.5310 c3        1 MOL     -0.238581
    100 C34         0.1070    1.6610    2.7690 c3        1 MOL     -0.151236
    101 H42         1.8000   -1.6960    2.2440 hn        1 MOL      0.146787
    102 H43         1.6380    0.8070    0.7240 h1        1 MOL      0.081739
    103 H44         3.1600    0.1530    3.2930 hc        1 MOL     -0.059430
    104 H45         1.4390    1.2770    4.3290 hc        1 MOL     -0.044070
    105 H46         0.7790   -0.2370    3.6470 hc        1 MOL     -0.044070
    106 H47         2.6400    2.6790    1.6840 hc        1 MOL      0.065562
    107 H48         2.9700    2.6500    3.4900 hc        1 MOL      0.065562
    108 H49         4.1530    2.0560    2.4080 hc        1 MOL      0.065562
    109 H50        -0.1050    1.2540    1.7760 hc        1 MOL      0.031631
    110 H51        -0.8330    1.5890    3.3140 hc        1 MOL      0.031631
    111 H52         0.4820    2.6820    2.6810 hc        1 MOL      0.031631
    112 N10         4.3600   -1.1620    0.6290 n         1 MOL     -0.353064
    113 C35         5.5630   -1.4870   -0.1010 c3        1 MOL      0.036762
    114 C36         6.5740   -2.0990    0.8730 c         1 MOL      0.559204
    115 O17         6.2280   -2.8120    1.7870 o         1 MOL     -0.528304
    116 C37         5.3340   -2.3460   -1.2570 c3        1 MOL      0.522394
    117 C38         4.3680   -1.7140   -2.2990 c3        1 MOL     -0.435858
    118 O18         6.5070   -2.6500   -1.9240 oh        1 MOL     -0.614762
    119 H53         3.8960   -1.8570    1.1990 hn        1 MOL      0.191294
    120 H54         5.9240   -0.5320   -0.4780 h1        1 MOL      0.074076
    121 H55         4.8340   -3.2140   -0.8250 h1        1 MOL     -0.057098
    122 H56         6.6990   -3.5880   -1.8120 ho        1 MOL      0.353912
    123 H57         4.4730   -0.6350   -2.3290 hc        1 MOL      0.122967
    124 H58         4.5250   -2.1780   -3.2760 hc        1 MOL      0.122967
    125 H59         3.4860   -2.0640   -1.7610 hc        1 MOL      0.122967
    126 N11         7.8650   -1.9550    0.5910 n         1 MOL     -0.570814
    127 C39         8.9910   -2.5910    1.3310 c3        1 MOL      0.078138
    128 C40        10.0600   -1.5610    1.7180 c         1 MOL      0.587714
    129 O19        10.5620   -1.5870    2.8480 o         1 MOL     -0.564898
    130 C41         9.5800   -3.7440    0.4330 c3        1 MOL      0.305635
    131 C42        10.7310   -4.5510    1.1390 c3        1 MOL     -0.377635
    132 O20        10.0870   -3.2440   -0.8110 oh        1 MOL     -0.605869
    133 H60         8.1450   -1.5530   -0.2910 hn        1 MOL      0.270610
    134 H61         8.5050   -3.0760    2.1800 h1        1 MOL      0.084181
    135 H62         8.7430   -4.4320    0.2610 h1        1 MOL      0.021203
    136 H63         9.6820   -3.6960   -1.5580 ho        1 MOL      0.403965
    137 H64        11.6070   -3.9520    1.3750 hc        1 MOL      0.098717
    138 H65        10.3870   -5.0070    2.0650 hc        1 MOL      0.098717
    139 H66        11.1040   -5.3160    0.4470 hc        1 MOL      0.098717
    140 N12        10.4470   -0.7200    0.6960 n         1 MOL     -0.467592
    141 C43        11.5190    0.2750    0.7730 c3        1 MOL      0.107388
    142 C44        11.3160    1.2450   -0.2850 c         1 MOL      0.481157
    143 O21        10.8570    0.8350   -1.3330 o         1 MOL     -0.463976
    144 C45        12.9820   -0.3290    0.6720 c3        1 MOL     -0.211144
    145 C46        14.1690    0.5230    1.2180 c3        1 MOL      0.107328
    146 C47        15.5370   -0.1400    1.0450 c3        1 MOL     -0.046097
    147 C48        16.6200    0.7020    1.7530 c3        1 MOL      0.029176
    148 N13        17.9390    0.0780    1.5110 n4        1 MOL     -0.096908
    149 H67        10.0050   -0.8410   -0.2040 hn        1 MOL      0.269445
    150 H68        11.4890    0.7650    1.7390 h1        1 MOL      0.053006
    151 H69        13.1740   -0.7500   -0.3190 hc        1 MOL      0.093143
    152 H70        13.0430   -1.2150    1.2910 hc        1 MOL      0.093143
    153 H71        14.0010    0.6940    2.2770 hc        1 MOL     -0.012011
    154 H72        14.1940    1.5500    0.8400 hc        1 MOL     -0.012011
    155 H73        15.7250   -0.1010   -0.0330 hc        1 MOL      0.033715
    156 H74        15.5870   -1.1660    1.4130 hc        1 MOL      0.033715
    157 H75        16.5500    0.5930    2.8370 hx        1 MOL      0.069192
    158 H76        16.6210    1.7230    1.3770 hx        1 MOL      0.069192
    159 H77        18.6900    0.4250    2.0910 hn        1 MOL      0.212386
    160 H78        17.9290   -0.9040    1.7140 hn        1 MOL      0.212386
    161 H79        18.2690    0.1650    0.5610 hn        1 MOL      0.212386
    162 N14        11.6740    2.4760    0.0020 n         1 MOL     -0.427773
    163 C49        11.4240    3.5600   -0.9840 c3        1 MOL      0.188482
    164 C50         9.9560    3.5730   -1.5010 c         1 MOL      0.345685
    165 O22         9.6940    3.3000   -2.6250 o         1 MOL     -0.470607
    166 C51        12.0150    4.8670   -0.4680 c3        1 MOL      0.070440
    167 C52        13.5100    5.0890   -0.8840 c3        1 MOL     -0.399922
    168 C53        13.7040    5.3360   -2.4000 c         1 MOL      0.813577
    169 O23        13.5580    6.4670   -2.8620 o         1 MOL     -0.675289
    170 O24        13.9750    4.4080   -3.1200 o         1 MOL     -0.675289
    171 H80        12.0480    2.5710    0.9330 hn        1 MOL      0.234239
    172 H81        11.9820    3.2440   -1.8700 h1        1 MOL      0.063752
    173 H82        11.8460    4.9400    0.6050 hc        1 MOL      0.019807
    174 H83        11.4810    5.7700   -0.7800 hc        1 MOL      0.019807
    175 H84        14.0900    4.2220   -0.5760 hc        1 MOL      0.057681
    176 H85        13.7880    5.9900   -0.3440 hc        1 MOL      0.057681
    177 N15         8.9460    3.8310   -0.6560 n         1 MOL     -0.342246
    178 C54         8.9420    4.3150    0.7380 c3        1 MOL      0.058823
    179 H86         9.7130    5.0760    0.8610 h1        1 MOL      0.011890
    180 H87         7.9670    4.7440    0.9720 h1        1 MOL      0.011890
    181 H88         9.1440    3.4820    1.4130 h1        1 MOL      0.011890
    182 H89         8.0320    3.7890   -1.0860 hn        1 MOL      0.283115
    183 Ca1        -7.6020    5.0590    0.2620 Ca        1 MOL      1.813227
    184 O25        -8.5990    5.6260    2.7290 oh        1 MOL     -0.924660
    185 H90        -8.8440    5.0900    3.4810 ho        1 MOL      0.448127
    186 H91        -8.6330    6.5310    3.0480 ho        1 MOL      0.448127
    187 O26        -7.3790    6.9270   -1.6340 oh        1 MOL     -0.924660
    188 H92        -8.1080    6.8640   -2.2480 ho        1 MOL      0.448127
    189 H93        -6.9790    7.7750   -1.8390 ho        1 MOL      0.448127
    190 O27        -5.3710    3.5160   -0.0900 oh        1 MOL     -0.924660
    191 H94        -4.5300    3.8310   -0.4460 ho        1 MOL      0.448127
    192 H95        -5.1320    2.7530    0.4440 ho        1 MOL      0.448127
    193 O28        -7.0880    3.9810   -2.2550 oh        1 MOL     -0.924660
    194 H96        -6.5550    3.1950   -2.2810 ho        1 MOL      0.448127
    195 H97        -6.7690    4.5180   -2.9800 ho        1 MOL      0.448127
    196 O29        -9.7880    6.8790    0.6350 oh        1 MOL     -0.924660
    197 H98       -10.0440    7.7740    0.4290 ho        1 MOL      0.448127
    198 H99       -10.6130    6.3900    0.6350 ho        1 MOL      0.448127
@<TRIPOS>BOND
     1    1    2 1   
     2    1    4 1   
     3    1    5 1   
     4    1    6 1   
     5    2    3 2   
     6    2    7 1   
     7    7    8 1   
     8    7   15 1   
     9    8    9 1   
    10    8   11 1   
    11    8   16 1   
    12    9   10 2   
    13    9   19 1   
    14   11   12 1   
    15   11   17 1   
    16   11   18 1   
    17   12   13 1   
    18   12   14 1   
    19   19   20 1   
    20   19   28 1   
    21   20   21 1   
    22   20   23 1   
    23   20   29 1   
    24   21   22 2   
    25   21   41 1   
    26   23   24 1   
    27   23   30 1   
    28   23   31 1   
    29   24   25 1   
    30   24   32 1   
    31   24   33 1   
    32   25   26 1   
    33   25   34 1   
    34   25   35 1   
    35   26   27 1   
    36   26   36 1   
    37   26   37 1   
    38   27   38 1   
    39   27   39 1   
    40   27   40 1   
    41   41   42 1   
    42   41   49 1   
    43   42   43 1   
    44   42   45 1   
    45   42   50 1   
    46   43   44 2   
    47   43   53 1   
    48   45   46 1   
    49   45   51 1   
    50   45   52 1   
    51   46   47 1   
    52   46   48 1   
    53   53   54 1   
    54   53   57 1   
    55   54   55 1   
    56   54   58 1   
    57   54   59 1   
    58   55   56 2   
    59   55   60 1   
    60   60   61 1   
    61   60   68 1   
    62   61   62 1   
    63   61   64 1   
    64   61   69 1   
    65   62   63 2   
    66   62   72 1   
    67   64   65 1   
    68   64   70 1   
    69   64   71 1   
    70   65   66 1   
    71   65   67 1   
    72   72   73 1   
    73   72   76 1   
    74   73   74 1   
    75   73   77 1   
    76   73   78 1   
    77   74   75 2   
    78   74   79 1   
    79   79   80 1   
    80   79   86 1   
    81   80   81 1   
    82   80   83 1   
    83   80   87 1   
    84   81   82 2   
    85   81   93 1   
    86   83   84 1   
    87   83   85 1   
    88   83   88 1   
    89   84   90 1   
    90   84   91 1   
    91   84   92 1   
    92   85   89 1   
    93   93   94 1   
    94   93  101 1   
    95   94   95 1   
    96   94   97 1   
    97   94  102 1   
    98   95   96 2   
    99   95  112 1   
   100   97   98 1   
   101   97   99 1   
   102   97  103 1   
   103   98  100 1   
   104   98  104 1   
   105   98  105 1   
   106   99  106 1   
   107   99  107 1   
   108   99  108 1   
   109  100  109 1   
   110  100  110 1   
   111  100  111 1   
   112  112  113 1   
   113  112  119 1   
   114  113  114 1   
   115  113  116 1   
   116  113  120 1   
   117  114  115 2   
   118  114  126 1   
   119  116  117 1   
   120  116  118 1   
   121  116  121 1   
   122  117  123 1   
   123  117  124 1   
   124  117  125 1   
   125  118  122 1   
   126  126  127 1   
   127  126  133 1   
   128  127  128 1   
   129  127  130 1   
   130  127  134 1   
   131  128  129 2   
   132  128  140 1   
   133  130  131 1   
   134  130  132 1   
   135  130  135 1   
   136  131  137 1   
   137  131  138 1   
   138  131  139 1   
   139  132  136 1   
   140  140  141 1   
   141  140  149 1   
   142  141  142 1   
   143  141  144 1   
   144  141  150 1   
   145  142  143 2   
   146  142  162 1   
   147  144  145 1   
   148  144  151 1   
   149  144  152 1   
   150  145  146 1   
   151  145  153 1   
   152  145  154 1   
   153  146  147 1   
   154  146  155 1   
   155  146  156 1   
   156  147  148 1   
   157  147  157 1   
   158  147  158 1   
   159  148  159 1   
   160  148  160 1   
   161  148  161 1   
   162  162  163 1   
   163  162  171 1   
   164  163  164 1   
   165  163  166 1   
   166  163  172 1   
   167  164  165 2   
   168  164  177 1   
   169  166  167 1   
   170  166  173 1   
   171  166  174 1   
   172  167  168 1   
   173  167  175 1   
   174  167  176 1   
   175  168  169 1   
   176  168  170 1   
   177  177  178 1   
   178  177  182 1   
   179  178  179 1   
   180  178  180 1   
   181  178  181 1   
   182  184  185 1   
   183  184  186 1   
   184  187  188 1   
   185  187  189 1   
   186  190  191 1   
   187  190  192 1   
   188  193  194 1   
   189  193  195 1   
   190  196  197 1   
   191  196  198 1   
@<TRIPOS>SUBSTRUCTURE
     1 MOL         1 TEMP              0 ****  ****    0 ROOT
