@<TRIPOS>MOLECULE
MOL
  178   175     1     0     0
SMALL
resp


@<TRIPOS>ATOM
      1 C1          1.0430    6.5220   -2.4930 c3        1 MOL     -0.418269
      2 C2          2.4510    6.0330   -2.1560 c         1 MOL      0.761039
      3 O1          2.9450    6.5130   -1.1450 o         1 MOL     -0.614767
      4 H1          0.3370    6.1250   -1.7640 hc        1 MOL      0.104626
      5 H2          1.0200    7.6120   -2.4640 hc        1 MOL      0.104626
      6 H3          0.7670    6.1780   -3.4900 hc        1 MOL      0.104626
      7 N1          3.1960    5.3270   -2.9740 n         1 MOL     -0.687341
      8 C3          4.3400    4.5910   -2.5030 c3        1 MOL      0.460624
      9 C4          4.0570    3.9050   -1.1530 c         1 MOL      0.441660
     10 O2          3.2080    3.0120   -1.0550 o         1 MOL     -0.622388
     11 C5          4.9880    3.6730   -3.5600 c3        1 MOL     -0.319145
     12 C6          6.2760    3.0600   -3.1430 c         1 MOL      0.767892
     13 O3          6.5420    1.8220   -3.3030 o         1 MOL     -0.747658
     14 O4          7.0900    3.8110   -2.5920 o         1 MOL     -0.747658
     15 H4          2.6370    5.0050   -3.7550 hn        1 MOL      0.309236
     16 H5          5.0930    5.3550   -2.3370 h1        1 MOL     -0.030053
     17 H6          5.1670    4.3180   -4.4120 hc        1 MOL      0.035439
     18 H7          4.2870    2.8910   -3.8540 hc        1 MOL      0.035439
     19 N2          4.7700    4.3370   -0.1680 n         1 MOL     -0.327784
     20 C7          4.7710    3.8150    1.2210 c3        1 MOL      0.254734
     21 C8          3.4070    3.7950    2.0090 c         1 MOL      0.565140
     22 O5          2.5480    4.6290    1.7490 o         1 MOL     -0.560304
     23 C9          5.8940    4.5580    2.0660 c3        1 MOL     -0.403277
     24 H8          5.4580    5.0340   -0.4180 hn        1 MOL      0.261802
     25 H9          5.1010    2.7830    1.0740 h1        1 MOL      0.054166
     26 H10         5.6790    4.2720    3.1020 hc        1 MOL      0.108355
     27 H11         6.8420    4.1560    1.6930 hc        1 MOL      0.108355
     28 H12         5.8420    5.6350    1.9610 hc        1 MOL      0.108355
     29 N3          3.1890    2.8680    2.9710 n         1 MOL     -0.476440
     30 C10         4.1020    1.8510    3.5500 c3        1 MOL      0.194163
     31 C11         4.3410    0.5900    2.6350 c         1 MOL      0.410548
     32 O6          3.5730    0.4050    1.7140 o         1 MOL     -0.488772
     33 C12         3.5940    1.3370    4.8770 c3        1 MOL     -0.185340
     34 C13         2.1560    0.7940    4.7950 c         1 MOL      0.642507
     35 O7          1.4870    0.7070    5.8940 o         1 MOL     -0.657805
     36 O8          1.6500    0.2890    3.7790 o         1 MOL     -0.657805
     37 H13         2.2620    2.9270    3.3640 hn        1 MOL      0.264159
     38 H14         5.0960    2.2740    3.6610 h1        1 MOL     -0.017307
     39 H15         3.7810    2.1360    5.5920 hc        1 MOL      0.030665
     40 H16         4.2560    0.5220    5.1740 hc        1 MOL      0.030665
     41 N4          5.4320   -0.1370    2.8130 n         1 MOL     -0.364891
     42 C14         5.9110   -1.2040    1.9320 c3        1 MOL     -0.235096
     43 C15         6.6810   -0.6340    0.6830 c         1 MOL      0.606164
     44 O9          6.8340    0.5770    0.5600 o         1 MOL     -0.531827
     45 H17         6.1440    0.2630    3.4130 hn        1 MOL      0.276957
     46 H18         5.0510   -1.7210    1.5030 h1        1 MOL      0.155136
     47 H19         6.6670   -1.8130    2.4140 h1        1 MOL      0.155136
     48 N5          7.2010   -1.4660   -0.1960 n         1 MOL     -0.522469
     49 C16         6.8460   -2.9020   -0.3510 c3        1 MOL      0.209499
     50 C17         6.1370   -3.2590   -1.7040 c         1 MOL      0.444225
     51 O10         6.0200   -4.4320   -2.1420 o         1 MOL     -0.553382
     52 C18         8.1270   -3.6930   -0.0740 c3        1 MOL     -0.362169
     53 C19         8.9610   -3.2370    1.1070 c         1 MOL      0.706642
     54 N6          9.8650   -2.3110    0.8940 n         1 MOL     -0.803013
     55 O11         8.7910   -3.7540    2.1900 o         1 MOL     -0.572240
     56 H20         7.8890   -1.0910   -0.8230 hn        1 MOL      0.321719
     57 H21         6.2510   -3.2290    0.5050 h1        1 MOL      0.063985
     58 H22         8.7890   -3.5740   -0.9330 hc        1 MOL      0.104750
     59 H23         7.9150   -4.7230    0.1800 hc        1 MOL      0.104750
     60 H24        10.0480   -1.8540    0.0120 hn        1 MOL      0.366869
     61 H25        10.5230   -2.2020    1.6550 hn        1 MOL      0.366869
     62 N7          5.4560   -2.2940   -2.2820 n         1 MOL     -0.238694
     63 C20         4.7410   -2.3790   -3.4880 c3        1 MOL     -0.082299
     64 C21         3.3500   -3.0350   -3.3040 c         1 MOL      0.546323
     65 O12         2.7460   -3.3600   -4.2990 o         1 MOL     -0.542327
     66 H26         5.5720   -1.3810   -1.8600 hn        1 MOL      0.216850
     67 H27         5.3170   -2.9360   -4.2300 h1        1 MOL      0.093866
     68 H28         4.6360   -1.3890   -3.9320 h1        1 MOL      0.093866
     69 N8          2.8550   -3.1350   -2.0480 n         1 MOL     -0.336167
     70 C22         1.7290   -3.8770   -1.7200 c3        1 MOL      0.039265
     71 C23         0.5280   -3.0730   -1.3260 c         1 MOL      0.408661
     72 O13         0.5890   -2.0280   -0.6520 o         1 MOL     -0.481069
     73 C24         2.0480   -5.0010   -0.6960 c3        1 MOL      0.481136
     74 C25         2.8270   -6.0950   -1.3710 c3        1 MOL     -0.471910
     75 O14         2.9640   -4.5390    0.3160 oh        1 MOL     -0.656399
     76 H29         3.3860   -2.7660   -1.2710 hn        1 MOL      0.164358
     77 H30         1.4930   -4.4300   -2.6340 h1        1 MOL      0.039399
     78 H31         1.0700   -5.2980   -0.3160 h1        1 MOL     -0.064611
     79 H32         2.5090   -3.8110    0.7590 ho        1 MOL      0.399285
     80 H33         2.2630   -6.5010   -2.2050 hc        1 MOL      0.127000
     81 H34         3.7800   -5.7010   -1.7330 hc        1 MOL      0.127000
     82 H35         3.0530   -6.9110   -0.6820 hc        1 MOL      0.127000
     83 N9         -0.6690   -3.6470   -1.4970 n         1 MOL     -0.206318
     84 C26        -2.0200   -3.1780   -1.1890 c3        1 MOL     -0.474513
     85 C27        -2.4350   -3.6070    0.2500 c         1 MOL      0.586638
     86 O15        -2.2380   -4.7280    0.7180 o         1 MOL     -0.577416
     87 C28        -2.9640   -3.6970   -2.2950 c3        1 MOL      0.263490
     88 C29        -4.4530   -3.1840   -2.2370 c3        1 MOL      0.216717
     89 C30        -2.4490   -3.5110   -3.7310 c3        1 MOL     -0.451051
     90 C31        -5.5500   -3.9630   -3.0430 c3        1 MOL     -0.161255
     91 H36        -0.6300   -4.5060   -2.0230 hn        1 MOL      0.228010
     92 H37        -2.0290   -2.0970   -1.2580 h1        1 MOL      0.283101
     93 H38        -3.0590   -4.7730   -2.1460 hc        1 MOL     -0.019741
     94 H39        -4.5040   -2.1390   -2.5170 hc        1 MOL     -0.063187
     95 H40        -4.7530   -3.2680   -1.1960 hc        1 MOL     -0.063187
     96 H41        -1.9670   -2.5480   -3.8250 hc        1 MOL      0.104184
     97 H42        -1.6840   -4.2590   -3.9460 hc        1 MOL      0.104184
     98 H43        -3.2340   -3.5650   -4.4890 hc        1 MOL      0.104184
     99 H44        -5.3520   -5.0230   -2.9040 hc        1 MOL      0.023570
    100 H45        -6.5310   -3.7210   -2.6230 hc        1 MOL      0.023570
    101 H46        -5.6210   -3.7450   -4.1140 hc        1 MOL      0.023570
    102 N10        -2.9070   -2.6580    1.0570 n         1 MOL     -0.086579
    103 C32        -3.5590   -2.8790    2.3170 c3        1 MOL     -0.314705
    104 C33        -4.8810   -2.0540    2.4420 c         1 MOL      0.714149
    105 O16        -5.6440   -2.3810    3.3560 o         1 MOL     -0.562705
    106 C34        -2.5470   -2.5950    3.4660 c3        1 MOL      0.228308
    107 C35        -1.9310   -1.2470    3.5250 c         1 MOL      0.566163
    108 O17        -0.9670   -0.9230    2.7350 o         1 MOL     -0.672622
    109 O18        -2.4080   -0.5580    4.4110 o         1 MOL     -0.672622
    110 H47        -2.8810   -1.7290    0.6390 hn        1 MOL     -0.030643
    111 H48        -3.8550   -3.9230    2.3490 h1        1 MOL      0.111883
    112 H49        -1.6640   -3.2200    3.3060 hc        1 MOL     -0.046248
    113 H50        -2.9850   -2.9280    4.4100 hc        1 MOL     -0.046248
    114 N11        -5.1580   -0.9800    1.6190 n         1 MOL     -0.733139
    115 C36        -6.4500   -0.3450    1.4380 c3        1 MOL      0.405634
    116 C37        -6.4350    1.0610    0.7610 c         1 MOL      0.224049
    117 O19        -7.1570    1.2560   -0.2560 o         1 MOL     -0.479007
    118 C38        -7.3840   -1.3820    0.6840 c3        1 MOL     -0.314749
    119 C39        -8.8550   -1.0210    0.6480 ca        1 MOL      0.153886
    120 C40        -9.4920    0.0200    1.4010 ca        1 MOL     -0.127291
    121 C41        -9.6660   -1.8670   -0.0850 ca        1 MOL     -0.127291
    122 C42       -10.8400    0.2420    1.3080 ca        1 MOL     -0.144601
    123 C43       -11.0690   -1.6900   -0.3070 ca        1 MOL     -0.144601
    124 C44       -11.6140   -0.6340    0.4680 ca        1 MOL     -0.144303
    125 H51        -4.5020   -0.7380    0.8880 hn        1 MOL      0.450663
    126 H52        -6.8720   -0.3370    2.4390 h1        1 MOL      0.011940
    127 H53        -7.3190   -2.3410    1.1950 hc        1 MOL      0.109475
    128 H54        -7.1180   -1.4700   -0.3750 hc        1 MOL      0.109475
    129 H55        -8.8150    0.6520    1.9630 ha        1 MOL      0.086409
    130 H56        -9.3770   -2.8460   -0.4110 ha        1 MOL      0.086409
    131 H57       -11.2820    1.0880    1.8120 ha        1 MOL      0.119463
    132 H58       -11.6720   -2.4250   -0.8130 ha        1 MOL      0.119463
    133 H59       -12.6800   -0.4480    0.4140 ha        1 MOL      0.084335
    134 N12        -5.6170    2.0250    1.2720 n         1 MOL     -0.045767
    135 C45        -5.6240    3.3880    0.6710 c3        1 MOL      0.052757
    136 C46        -5.0280    3.4800   -0.7290 c         1 MOL      0.244587
    137 O20        -4.9990    4.5430   -1.3210 o         1 MOL     -0.496758
    138 C47        -4.8610    4.2420    1.7070 c3        1 MOL     -0.191824
    139 C48        -4.8900    3.3820    3.0120 c3        1 MOL     -0.172212
    140 C49        -4.8180    1.9950    2.4450 c3        1 MOL     -0.035478
    141 H60        -6.6690    3.7010    0.6590 h1        1 MOL      0.090407
    142 H61        -3.8240    4.3570    1.3730 hc        1 MOL      0.097038
    143 H62        -5.3260    5.2110    1.8690 hc        1 MOL      0.097038
    144 H63        -4.0110    3.5080    3.6480 hc        1 MOL      0.068940
    145 H64        -5.8520    3.4960    3.5090 hc        1 MOL      0.068940
    146 H65        -3.7720    1.8590    2.1480 h1        1 MOL      0.121369
    147 H66        -5.2330    1.3680    3.2250 h1        1 MOL      0.121369
    148 N13        -4.5310    2.3330   -1.2680 n         1 MOL      0.063140
    149 C50        -4.0770    2.2300   -2.6650 c3        1 MOL     -0.305005
    150 C51        -5.3470    2.0230   -3.5440 c         1 MOL      0.599781
    151 O21        -5.5200    2.7320   -4.5320 o         1 MOL     -0.560858
    152 C52        -2.9500    1.1900   -2.9210 c3        1 MOL      0.005754
    153 C53        -1.8010    1.3090   -1.9320 c3        1 MOL     -0.095061
    154 C54        -2.1740    0.4750   -0.6700 c         1 MOL      0.714914
    155 O22        -1.2350    0.1640    0.0510 o         1 MOL     -0.693636
    156 O23        -3.3190    0.0340   -0.4050 o         1 MOL     -0.693636
    157 H67        -4.5530    1.5080   -0.6870 hn        1 MOL      0.050815
    158 H68        -3.6330    3.1720   -2.9790 h1        1 MOL      0.140629
    159 H69        -2.4850    1.3570   -3.9030 hc        1 MOL      0.012852
    160 H70        -3.3060    0.1660   -3.0510 hc        1 MOL      0.012852
    161 H71        -1.5630    2.3340   -1.6250 hc        1 MOL      0.044800
    162 H72        -0.9050    0.8400   -2.3240 hc        1 MOL      0.044800
    163 N14        -6.2320    1.0450   -3.1480 n         1 MOL     -0.349623
    164 C55        -7.5230    0.7410   -3.9230 c3        1 MOL     -0.151344
    165 H73        -8.3790    0.8450   -3.2560 h1        1 MOL      0.085245
    166 H74        -7.6230    1.4410   -4.7530 h1        1 MOL      0.085245
    167 H75        -7.4860   -0.2780   -4.3080 h1        1 MOL      0.085245
    168 H76        -6.0120    0.7220   -2.2120 hn        1 MOL      0.290073
    169 Ca1         0.8850   -0.0210    1.2860 Ca        1 MOL      1.698864
    170 O24         0.6020    2.5700    0.9700 oh        1 MOL     -0.946848
    171 H77        -0.1320    3.0850    1.3280 ho        1 MOL      0.455089
    172 H78         1.2620    3.2300    0.7360 ho        1 MOL      0.455089
    173 O25         1.8990   -2.3860    2.1740 oh        1 MOL     -0.946848
    174 H79         1.2520   -3.0750    2.2730 ho        1 MOL      0.455089
    175 H80         2.4500   -2.4450    2.9610 ho        1 MOL      0.455089
    176 O26         2.1890    0.6240   -0.8960 oh        1 MOL     -0.946848
    177 H81         2.2730    1.5710   -0.9630 ho        1 MOL      0.455089
    178 H82         3.0190    0.2880   -1.2220 ho        1 MOL      0.455089
@<TRIPOS>BOND
     1    1    2 1   
     2    1    4 1   
     3    1    5 1   
     4    1    6 1   
     5    2    3 2   
     6    2    7 1   
     7    7    8 1   
     8    7   15 1   
     9    8    9 1   
    10    8   11 1   
    11    8   16 1   
    12    9   10 2   
    13    9   19 1   
    14   11   12 1   
    15   11   17 1   
    16   11   18 1   
    17   12   13 1   
    18   12   14 1   
    19   19   20 1   
    20   19   24 1   
    21   20   21 1   
    22   20   23 1   
    23   20   25 1   
    24   21   22 2   
    25   21   29 1   
    26   23   26 1   
    27   23   27 1   
    28   23   28 1   
    29   29   30 1   
    30   29   37 1   
    31   30   31 1   
    32   30   33 1   
    33   30   38 1   
    34   31   32 2   
    35   31   41 1   
    36   33   34 1   
    37   33   39 1   
    38   33   40 1   
    39   34   35 1   
    40   34   36 1   
    41   41   42 1   
    42   41   45 1   
    43   42   43 1   
    44   42   46 1   
    45   42   47 1   
    46   43   44 2   
    47   43   48 1   
    48   48   49 1   
    49   48   56 1   
    50   49   50 1   
    51   49   52 1   
    52   49   57 1   
    53   50   51 2   
    54   50   62 1   
    55   52   53 1   
    56   52   58 1   
    57   52   59 1   
    58   53   54 1   
    59   53   55 2   
    60   54   60 1   
    61   54   61 1   
    62   62   63 1   
    63   62   66 1   
    64   63   64 1   
    65   63   67 1   
    66   63   68 1   
    67   64   65 2   
    68   64   69 1   
    69   69   70 1   
    70   69   76 1   
    71   70   71 1   
    72   70   73 1   
    73   70   77 1   
    74   71   72 2   
    75   71   83 1   
    76   73   74 1   
    77   73   75 1   
    78   73   78 1   
    79   74   80 1   
    80   74   81 1   
    81   74   82 1   
    82   75   79 1   
    83   83   84 1   
    84   83   91 1   
    85   84   85 1   
    86   84   87 1   
    87   84   92 1   
    88   85   86 2   
    89   85  102 1   
    90   87   88 1   
    91   87   89 1   
    92   87   93 1   
    93   88   90 1   
    94   88   94 1   
    95   88   95 1   
    96   89   96 1   
    97   89   97 1   
    98   89   98 1   
    99   90   99 1   
   100   90  100 1   
   101   90  101 1   
   102  102  103 1   
   103  102  110 1   
   104  103  104 1   
   105  103  106 1   
   106  103  111 1   
   107  104  105 2   
   108  104  114 1   
   109  106  107 1   
   110  106  112 1   
   111  106  113 1   
   112  107  108 1   
   113  107  109 1   
   114  114  115 1   
   115  114  125 1   
   116  115  116 1   
   117  115  118 1   
   118  115  126 1   
   119  116  117 2   
   120  116  134 1   
   121  118  119 1   
   122  118  127 1   
   123  118  128 1   
   124  119  120 ar  
   125  119  121 ar  
   126  120  122 ar  
   127  120  129 1   
   128  121  123 ar  
   129  121  130 1   
   130  122  124 ar  
   131  122  131 1   
   132  123  124 ar  
   133  123  132 1   
   134  124  133 1   
   135  134  135 1   
   136  134  140 1   
   137  135  136 1   
   138  135  138 1   
   139  135  141 1   
   140  136  137 2   
   141  136  148 1   
   142  138  139 1   
   143  138  142 1   
   144  138  143 1   
   145  139  140 1   
   146  139  144 1   
   147  139  145 1   
   148  140  146 1   
   149  140  147 1   
   150  148  149 1   
   151  148  157 1   
   152  149  150 1   
   153  149  152 1   
   154  149  158 1   
   155  150  151 2   
   156  150  163 1   
   157  152  153 1   
   158  152  159 1   
   159  152  160 1   
   160  153  154 1   
   161  153  161 1   
   162  153  162 1   
   163  154  155 1   
   164  154  156 1   
   165  163  164 1   
   166  163  168 1   
   167  164  165 1   
   168  164  166 1   
   169  164  167 1   
   170  170  171 1   
   171  170  172 1   
   172  173  174 1   
   173  173  175 1   
   174  176  177 1   
   175  176  178 1   
@<TRIPOS>SUBSTRUCTURE
     1 MOL         1 TEMP              0 ****  ****    0 ROOT
