@<TRIPOS>MOLECULE
MOL
  189   185     1     0     0
SMALL
resp


@<TRIPOS>ATOM
      1 C1         -4.4620    3.9400    3.3970 c3        1 MOL     -0.376679
      2 C2         -5.2240    3.1310    2.3520 c         1 MOL      0.727048
      3 O1         -4.7530    2.8200    1.2710 o         1 MOL     -0.605944
      4 H1         -5.1690    4.4960    4.0120 hc        1 MOL      0.103214
      5 H2         -3.8840    3.2660    4.0290 hc        1 MOL      0.103214
      6 H3         -3.7900    4.6380    2.8970 hc        1 MOL      0.103214
      7 N1         -6.3840    2.5710    2.7270 n         1 MOL     -0.677611
      8 C3         -7.2480    1.6500    1.9690 c3        1 MOL      0.335810
      9 C4         -6.4320    0.4610    1.5620 c         1 MOL      0.330805
     10 O2         -6.0130    0.3300    0.4460 o         1 MOL     -0.547474
     11 C5         -8.1600    2.3020    0.8480 c3        1 MOL     -0.273169
     12 C6         -7.4670    3.2500   -0.1880 c         1 MOL      0.852476
     13 O3         -6.9850    2.7700   -1.2090 o         1 MOL     -0.744692
     14 O4         -7.4100    4.4700    0.0020 o         1 MOL     -0.744692
     15 H4         -6.6390    2.7530    3.6900 hn        1 MOL      0.307763
     16 H5         -7.9100    1.2250    2.7200 h1        1 MOL      0.010324
     17 H6         -8.9470    2.8970    1.3320 hc        1 MOL      0.049594
     18 H7         -8.5780    1.4570    0.3050 hc        1 MOL      0.049594
     19 N2         -6.0270   -0.3590    2.6150 n         1 MOL     -0.445729
     20 C7         -5.1100   -1.4820    2.5710 c3        1 MOL      0.106175
     21 C8         -5.7080   -2.7220    1.8340 c         1 MOL      0.384679
     22 O5         -5.8110   -3.7840    2.4050 o         1 MOL     -0.564575
     23 C9         -3.6440   -1.0770    2.3070 c3        1 MOL      0.105310
     24 C10        -2.6330   -2.2430    2.1780 c3        1 MOL     -0.017765
     25 C11        -3.2090    0.0410    3.2740 c3        1 MOL     -0.520763
     26 C12        -2.3890   -3.1770    3.3590 c3        1 MOL     -0.356964
     27 H8         -6.5380   -0.0710    3.4360 hn        1 MOL      0.277772
     28 H9         -5.1170   -1.7770    3.6210 h1        1 MOL      0.045755
     29 H10        -3.6690   -0.6390    1.3140 hc        1 MOL     -0.017806
     30 H11        -1.7210   -1.7110    1.9460 hc        1 MOL      0.094894
     31 H12        -2.8620   -2.9120    1.3420 hc        1 MOL      0.094894
     32 H13        -3.5700    1.0310    2.9670 hc        1 MOL      0.127897
     33 H14        -3.6650   -0.1250    4.2480 hc        1 MOL      0.127897
     34 H15        -2.1350    0.2470    3.2730 hc        1 MOL      0.127897
     35 H16        -3.2440   -3.7120    3.7740 hc        1 MOL      0.083147
     36 H17        -1.5740   -3.8430    3.0800 hc        1 MOL      0.083147
     37 H18        -2.1360   -2.5030    4.1730 hc        1 MOL      0.083147
     38 N3         -6.1070   -2.5160    0.6040 n         1 MOL     -0.151653
     39 C13        -6.9490   -3.4870   -0.1720 c3        1 MOL      0.236452
     40 C14        -6.2260   -4.7670   -0.5920 c         1 MOL      0.437070
     41 O6         -6.9480   -5.8320   -0.5470 o         1 MOL     -0.589422
     42 C15        -7.6090   -2.8470   -1.3470 c3        1 MOL     -0.270512
     43 C16        -8.6090   -1.7360   -1.0110 c         1 MOL      0.705963
     44 O7         -9.0350   -0.8770   -1.8750 o         1 MOL     -0.708761
     45 O8         -9.1420   -1.8930    0.1330 o         1 MOL     -0.708761
     46 H19        -6.0200   -1.5680    0.2670 hn        1 MOL      0.201300
     47 H20        -7.7520   -3.8050    0.4890 h1        1 MOL      0.021317
     48 H21        -7.9780   -3.6660   -1.9620 hc        1 MOL      0.069852
     49 H22        -6.8560   -2.3430   -1.9600 hc        1 MOL      0.069852
     50 N4         -4.9570   -4.8510   -0.9720 n         1 MOL     -0.459775
     51 C17        -3.9440   -3.8390   -1.3520 c3        1 MOL      0.025396
     52 C18        -4.2530   -3.2800   -2.7250 c         1 MOL      0.490765
     53 O9         -5.1970   -3.6630   -3.3930 o         1 MOL     -0.498682
     54 H23        -4.6020   -5.7870   -1.1100 hn        1 MOL      0.277452
     55 H24        -3.0010   -4.3880   -1.3070 h1        1 MOL      0.078256
     56 H25        -4.0710   -3.0260   -0.6430 h1        1 MOL      0.078256
     57 N5         -3.3720   -2.3560   -3.2860 n         1 MOL     -0.500964
     58 C19        -2.1300   -1.6670   -2.7270 c3        1 MOL      0.129378
     59 C20        -2.2780   -1.0420   -1.3300 c         1 MOL     -0.032238
     60 O10        -3.3950   -0.6790   -1.0100 o         1 MOL     -0.352114
     61 C21        -1.7190   -0.6140   -3.7870 c3        1 MOL     -0.392108
     62 C22        -2.8360    0.4020   -3.9700 c         1 MOL      0.743479
     63 O11        -3.7460    0.1720   -4.8180 o         1 MOL     -0.650753
     64 O12        -2.9270    1.3820   -3.1790 o         1 MOL     -0.650753
     65 H26        -3.6940   -2.0130   -4.1850 hn        1 MOL      0.289112
     66 H27        -1.3620   -2.4370   -2.6480 h1        1 MOL      0.069365
     67 H28        -1.5130   -1.0930   -4.7470 hc        1 MOL      0.103677
     68 H29        -0.7800   -0.1590   -3.4880 hc        1 MOL      0.103677
     69 N6         -1.1810   -0.7350   -0.5880 n         1 MOL     -0.029232
     70 C23         0.2090   -1.0820   -0.8790 c3        1 MOL     -0.034652
     71 C24         0.3340   -2.5890   -0.5150 c         1 MOL      0.360357
     72 O13        -0.5680   -3.3480   -0.0930 o         1 MOL     -0.443553
     73 H30        -1.3550   -0.3360    0.3260 hn        1 MOL      0.241177
     74 H31         0.9210   -0.5160   -0.2890 h1        1 MOL      0.052116
     75 H32         0.4240   -1.0640   -1.9470 h1        1 MOL      0.052116
     76 N7          1.5100   -3.1200   -0.9380 n         1 MOL     -0.291690
     77 C25         2.0590   -4.4190   -0.5460 c3        1 MOL     -0.056796
     78 C26         2.7880   -4.5670    0.7720 c         1 MOL      0.446759
     79 O14         2.9270   -5.6950    1.2970 o         1 MOL     -0.538674
     80 C27         2.9220   -5.0600   -1.6930 c3        1 MOL      0.080742
     81 C28         4.1100   -4.3840   -2.3410 c3        1 MOL     -0.180495
     82 C29         5.1500   -4.0490   -1.2810 c         1 MOL      0.551618
     83 N8          5.8550   -5.0260   -0.8410 n         1 MOL     -0.739457
     84 O15         5.3710   -2.8760   -1.0120 o         1 MOL     -0.611175
     85 H33         2.1280   -2.6830   -1.6060 hn        1 MOL      0.259570
     86 H34         1.2420   -5.1370   -0.4050 h1        1 MOL      0.105847
     87 H35         2.2220   -5.2620   -2.5010 hc        1 MOL     -0.000079
     88 H36         3.2460   -6.0570   -1.3830 hc        1 MOL     -0.000079
     89 H37         3.7540   -3.5070   -2.8700 hc        1 MOL      0.060074
     90 H38         4.5290   -5.1910   -2.9420 hc        1 MOL      0.060074
     91 H39         5.7230   -5.9910   -1.1220 hn        1 MOL      0.379622
     92 H40         6.6800   -4.7780   -0.3090 hn        1 MOL      0.379622
     93 N9          3.1360   -3.4200    1.3110 n         1 MOL     -0.150210
     94 C30         3.5340   -3.1240    2.7210 c3        1 MOL     -0.263487
     95 C31         4.9200   -2.3370    2.8040 c         1 MOL      0.521249
     96 O16         5.4250   -2.1290    3.9310 o         1 MOL     -0.546840
     97 C32         2.4730   -2.3150    3.5700 c3        1 MOL      0.323257
     98 C33         1.2040   -3.1540    3.6920 c3        1 MOL     -0.230249
     99 C34         2.1670   -0.8810    2.9950 c3        1 MOL     -0.230249
    100 H41         3.2740   -2.6510    0.6590 hn        1 MOL      0.137276
    101 H42         3.8090   -4.0260    3.2660 h1        1 MOL      0.137891
    102 H43         2.9410   -2.2290    4.5500 hc        1 MOL     -0.009199
    103 H44         0.6950   -3.3410    2.7510 hc        1 MOL      0.043867
    104 H45         1.5400   -4.0940    4.1350 hc        1 MOL      0.043867
    105 H46         0.4820   -2.7370    4.3940 hc        1 MOL      0.043867
    106 H47         1.4190   -0.4070    3.6260 hc        1 MOL      0.043867
    107 H48         3.0840   -0.3040    3.0940 hc        1 MOL      0.043867
    108 H49         1.9260   -0.8900    1.9360 hc        1 MOL      0.043867
    109 N10         5.4790   -1.8450    1.6820 n         1 MOL     -0.365277
    110 C35         6.7730   -1.0820    1.7420 c3        1 MOL     -0.023967
    111 C36         6.7420    0.3180    1.1640 c         1 MOL      0.599672
    112 O17         7.6190    1.1480    1.5180 o         1 MOL     -0.575353
    113 C37         7.8990   -1.7930    1.0990 c3        1 MOL     -0.271099
    114 C38         8.1540   -3.2340    1.5890 c         1 MOL      0.617856
    115 N11         8.5850   -3.4170    2.8020 n         1 MOL     -0.724007
    116 O18         8.0620   -4.2480    0.8500 o         1 MOL     -0.583930
    117 H50         4.9980   -1.8670    0.7910 hn        1 MOL      0.372427
    118 H51         6.9900   -0.8990    2.7970 h1        1 MOL      0.085834
    119 H52         8.8510   -1.2740    1.2050 hc        1 MOL      0.128807
    120 H53         7.6990   -1.9930    0.0410 hc        1 MOL      0.128807
    121 H54         8.6770   -2.6200    3.4230 hn        1 MOL      0.360640
    122 H55         8.7760   -4.3510    3.1170 hn        1 MOL      0.360640
    123 N12         5.7750    0.7110    0.3810 n         1 MOL     -0.459085
    124 C39         5.7850    1.8890   -0.5470 c3        1 MOL      0.180497
    125 C40         4.5010    2.6610   -0.5900 c         1 MOL      0.410798
    126 O19         3.4200    2.0860   -0.6440 o         1 MOL     -0.445364
    127 C41         6.0270    1.4630   -1.9830 c3        1 MOL      0.066798
    128 C42         7.1710    0.5260   -2.1590 ca        1 MOL      0.015090
    129 C43         6.9590   -0.7800   -2.6120 ca        1 MOL     -0.149866
    130 C44         8.4400    1.0130   -1.8640 ca        1 MOL     -0.149866
    131 C45         8.0950   -1.6180   -2.7690 ca        1 MOL     -0.303790
    132 C46         9.5600    0.1590   -2.0200 ca        1 MOL     -0.303790
    133 C47         9.3910   -1.1290   -2.4290 ca        1 MOL      0.366486
    134 O20        10.4090   -1.9750   -2.4160 oh        1 MOL     -0.512351
    135 H56         4.9580    0.1250    0.2320 hn        1 MOL      0.192720
    136 H57         6.6010    2.5130   -0.1950 h1        1 MOL      0.027268
    137 H58         6.2640    2.3530   -2.5660 hc        1 MOL      0.000749
    138 H59         5.1450    0.9450   -2.3570 hc        1 MOL      0.000749
    139 H60         5.9750   -1.2330   -2.6430 ha        1 MOL      0.161198
    140 H61         8.5640    2.0360   -1.5230 ha        1 MOL      0.161198
    141 H62         7.9460   -2.6500   -3.0670 ha        1 MOL      0.152936
    142 H63        10.5400    0.4970   -1.7150 ha        1 MOL      0.152936
    143 H64        10.1800   -2.8240   -2.8170 ho        1 MOL      0.364702
    144 N13         4.5560    4.0130   -0.5710 n         1 MOL     -0.473142
    145 C48         3.5330    5.0320   -0.7380 c3        1 MOL      0.021107
    146 C49         2.4880    5.1580    0.3930 c         1 MOL      0.326108
    147 O21         1.8920    6.2040    0.5130 o         1 MOL     -0.479991
    148 C50         2.7910    4.9220   -2.1130 c3        1 MOL     -0.037273
    149 C51         3.7360    5.1170   -3.2860 c3        1 MOL     -0.384508
    150 C52         4.6680    6.3110   -3.3000 c         1 MOL      0.790901
    151 O22         5.8850    6.2590   -3.3380 o         1 MOL     -0.750864
    152 O23         4.1310    7.4570   -3.2530 o         1 MOL     -0.750864
    153 H65         5.5190    4.3160   -0.5640 hn        1 MOL      0.304399
    154 H66         3.9790    6.0260   -0.7490 h1        1 MOL      0.128013
    155 H67         1.9050    5.5620   -2.1850 hc        1 MOL      0.090513
    156 H68         2.3920    3.9050   -2.1920 hc        1 MOL      0.090513
    157 H69         3.0680    5.2270   -4.1320 hc        1 MOL      0.071259
    158 H70         4.3120    4.1970   -3.2780 hc        1 MOL      0.071259
    159 N14         2.1470    4.0710    1.0790 n         1 MOL     -0.197240
    160 C53         1.0030    4.0400    2.0350 c3        1 MOL     -0.129369
    161 C54         1.3450    4.6780    3.4260 c         1 MOL      0.456319
    162 O24         0.4530    5.1430    4.1220 o         1 MOL     -0.522559
    163 C55         0.4340    2.5990    2.1810 c3        1 MOL     -0.128278
    164 C56        -0.0150    1.8020    0.9910 c3        1 MOL      0.668354
    165 C57        -1.2540    2.3870    0.2810 c         1 MOL      0.353969
    166 O25        -2.3210    1.6900    0.2090 o         1 MOL     -0.563876
    167 O26        -1.2180    3.5050   -0.3300 o         1 MOL     -0.563876
    168 H71         2.7130    3.2520    0.9790 hn        1 MOL      0.198269
    169 H72         0.1150    4.5740    1.7240 h1        1 MOL      0.164106
    170 H73        -0.3750    2.6640    2.9070 hc        1 MOL      0.010770
    171 H74         1.2020    2.0290    2.7100 hc        1 MOL      0.010770
    172 H75        -0.4350    0.8790    1.3790 hc        1 MOL     -0.238235
    173 H76         0.8210    1.7640    0.2970 hc        1 MOL     -0.238235
    174 N15         2.6340    4.9110    3.6970 n         1 MOL     -0.242188
    175 C58         3.2050    5.6260    4.8900 c3        1 MOL     -0.154956
    176 H77         2.4600    5.6580    5.6850 h1        1 MOL      0.080548
    177 H78         4.0890    5.0960    5.2430 h1        1 MOL      0.080548
    178 H79         3.4780    6.6430    4.6090 h1        1 MOL      0.080548
    179 H80         3.3430    4.5870    3.0480 hn        1 MOL      0.206934
    180 Ca1        -4.5650    1.6670   -1.0610 Ca        1 MOL      1.771172
    181 O27        -5.4490    3.0950   -3.2700 oh        1 MOL     -0.823235
    182 H81        -5.6260    3.5600   -4.0870 ho        1 MOL      0.377557
    183 H82        -6.2860    3.0810   -2.8180 ho        1 MOL      0.377557
    184 O28        -3.5900    4.2820   -0.9890 oh        1 MOL     -0.823235
    185 H83        -2.6800    4.0990   -0.7310 ho        1 MOL      0.377557
    186 H84        -3.9630    4.7240   -0.2330 ho        1 MOL      0.377557
    187 O29        -5.7580    0.0780   -2.9690 oh        1 MOL     -0.823235
    188 H85        -5.0540    0.1370   -3.6100 ho        1 MOL      0.377557
    189 H86        -6.3050   -0.6430   -3.2630 ho        1 MOL      0.377557
@<TRIPOS>BOND
     1    1    2 1   
     2    1    4 1   
     3    1    5 1   
     4    1    6 1   
     5    2    3 2   
     6    2    7 1   
     7    7    8 1   
     8    7   15 1   
     9    8    9 1   
    10    8   11 1   
    11    8   16 1   
    12    9   10 2   
    13    9   19 1   
    14   11   12 1   
    15   11   17 1   
    16   11   18 1   
    17   12   13 1   
    18   12   14 1   
    19   19   20 1   
    20   19   27 1   
    21   20   21 1   
    22   20   23 1   
    23   20   28 1   
    24   21   22 2   
    25   21   38 1   
    26   23   24 1   
    27   23   25 1   
    28   23   29 1   
    29   24   26 1   
    30   24   30 1   
    31   24   31 1   
    32   25   32 1   
    33   25   33 1   
    34   25   34 1   
    35   26   35 1   
    36   26   36 1   
    37   26   37 1   
    38   38   39 1   
    39   38   46 1   
    40   39   40 1   
    41   39   42 1   
    42   39   47 1   
    43   40   41 2   
    44   40   50 1   
    45   42   43 1   
    46   42   48 1   
    47   42   49 1   
    48   43   44 1   
    49   43   45 1   
    50   50   51 1   
    51   50   54 1   
    52   51   52 1   
    53   51   55 1   
    54   51   56 1   
    55   52   53 2   
    56   52   57 1   
    57   57   58 1   
    58   57   65 1   
    59   58   59 1   
    60   58   61 1   
    61   58   66 1   
    62   59   60 2   
    63   59   69 1   
    64   61   62 1   
    65   61   67 1   
    66   61   68 1   
    67   62   63 1   
    68   62   64 1   
    69   69   70 1   
    70   69   73 1   
    71   70   71 1   
    72   70   74 1   
    73   70   75 1   
    74   71   72 2   
    75   71   76 1   
    76   76   77 1   
    77   76   85 1   
    78   77   78 1   
    79   77   80 1   
    80   77   86 1   
    81   78   79 2   
    82   78   93 1   
    83   80   81 1   
    84   80   87 1   
    85   80   88 1   
    86   81   82 1   
    87   81   89 1   
    88   81   90 1   
    89   82   83 1   
    90   82   84 2   
    91   83   91 1   
    92   83   92 1   
    93   93   94 1   
    94   93  100 1   
    95   94   95 1   
    96   94   97 1   
    97   94  101 1   
    98   95   96 2   
    99   95  109 1   
   100   97   98 1   
   101   97   99 1   
   102   97  102 1   
   103   98  103 1   
   104   98  104 1   
   105   98  105 1   
   106   99  106 1   
   107   99  107 1   
   108   99  108 1   
   109  109  110 1   
   110  109  117 1   
   111  110  111 1   
   112  110  113 1   
   113  110  118 1   
   114  111  112 2   
   115  111  123 1   
   116  113  114 1   
   117  113  119 1   
   118  113  120 1   
   119  114  115 1   
   120  114  116 2   
   121  115  121 1   
   122  115  122 1   
   123  123  124 1   
   124  123  135 1   
   125  124  125 1   
   126  124  127 1   
   127  124  136 1   
   128  125  126 2   
   129  125  144 1   
   130  127  128 1   
   131  127  137 1   
   132  127  138 1   
   133  128  129 ar  
   134  128  130 ar  
   135  129  131 ar  
   136  129  139 1   
   137  130  132 ar  
   138  130  140 1   
   139  131  133 ar  
   140  131  141 1   
   141  132  133 ar  
   142  132  142 1   
   143  133  134 1   
   144  134  143 1   
   145  144  145 1   
   146  144  153 1   
   147  145  146 1   
   148  145  148 1   
   149  145  154 1   
   150  146  147 2   
   151  146  159 1   
   152  148  149 1   
   153  148  155 1   
   154  148  156 1   
   155  149  150 1   
   156  149  157 1   
   157  149  158 1   
   158  150  151 1   
   159  150  152 1   
   160  159  160 1   
   161  159  168 1   
   162  160  161 1   
   163  160  163 1   
   164  160  169 1   
   165  161  162 2   
   166  161  174 1   
   167  163  164 1   
   168  163  170 1   
   169  163  171 1   
   170  164  165 1   
   171  164  172 1   
   172  164  173 1   
   173  165  166 1   
   174  165  167 1   
   175  174  175 1   
   176  174  179 1   
   177  175  176 1   
   178  175  177 1   
   179  175  178 1   
   180  181  182 1   
   181  181  183 1   
   182  184  185 1   
   183  184  186 1   
   184  187  188 1   
   185  187  189 1   
@<TRIPOS>SUBSTRUCTURE
     1 MOL         1 TEMP              0 ****  ****    0 ROOT
