@<TRIPOS>MOLECULE
MOL
  181   177     1     0     0
SMALL
resp


@<TRIPOS>ATOM
      1 C1          2.9180   -4.5890    3.2200 c3        1 MOL     -0.386685
      2 C2          4.1530   -5.0320    2.4490 c         1 MOL      0.596726
      3 O1          4.0930   -5.8390    1.4920 o         1 MOL     -0.543266
      4 H1          2.2350   -5.4330    3.3250 hc        1 MOL      0.097616
      5 H2          3.2130   -4.2350    4.2080 hc        1 MOL      0.097616
      6 H3          2.4200   -3.7850    2.6790 hc        1 MOL      0.097616
      7 N1          5.3590   -4.6430    2.9940 n         1 MOL     -0.444471
      8 C3          6.7020   -4.8730    2.4280 c3        1 MOL      0.025968
      9 C4          6.9240   -3.9410    1.2410 c         1 MOL      0.534255
     10 O2          7.5050   -2.8550    1.2880 o         1 MOL     -0.474177
     11 C5          7.6570   -4.5360    3.6090 c3        1 MOL     -0.289529
     12 C6          9.1690   -4.4980    3.3160 c         1 MOL      0.745970
     13 O3          9.7240   -5.3060    2.5020 o         1 MOL     -0.737564
     14 O4          9.8450   -3.6680    3.9800 o         1 MOL     -0.737564
     15 H4          5.2500   -4.0840    3.8330 hn        1 MOL      0.282174
     16 H5          6.7920   -5.9170    2.1290 h1        1 MOL      0.087388
     17 H6          7.5330   -5.2540    4.4110 hc        1 MOL      0.045783
     18 H7          7.3510   -3.5760    4.0070 hc        1 MOL      0.045783
     19 N2          6.3950   -4.4340    0.1350 n         1 MOL     -0.578077
     20 C7          6.2480   -3.7290   -1.2290 c3        1 MOL      0.601960
     21 C8          4.8130   -3.7990   -1.7160 c         1 MOL      0.342491
     22 O5          4.1070   -4.7490   -1.3750 o         1 MOL     -0.523464
     23 C9          7.2910   -4.2370   -2.2270 c3        1 MOL     -0.378528
     24 H8          5.9870   -5.3570    0.0780 hn        1 MOL      0.282091
     25 H9          6.3820   -2.6750   -0.9970 h1        1 MOL     -0.085199
     26 H10         8.1160   -4.6770   -1.6620 hc        1 MOL      0.081188
     27 H11         6.7890   -5.0290   -2.8020 hc        1 MOL      0.081188
     28 H12         7.6420   -3.4490   -2.8940 hc        1 MOL      0.081188
     29 N3          4.2750   -2.9060   -2.5030 n         1 MOL     -0.445155
     30 C10         4.7750   -1.7420   -3.1930 c3        1 MOL      0.030772
     31 C11         4.9990   -0.5290   -2.1410 c         1 MOL      0.666448
     32 O6          4.4870   -0.5260   -1.0370 o         1 MOL     -0.512769
     33 C12         3.8670   -1.3590   -4.3050 c3        1 MOL     -0.178467
     34 C13         2.4070   -1.2380   -4.0650 c         1 MOL      0.702459
     35 O7          1.8680   -0.0970   -4.2150 o         1 MOL     -0.737873
     36 O8          1.7450   -2.1530   -3.6110 o         1 MOL     -0.737873
     37 H13         3.2760   -2.9940   -2.5840 hn        1 MOL      0.345701
     38 H14         5.7750   -1.9500   -3.5630 h1        1 MOL      0.039762
     39 H15         4.0100   -2.0990   -5.0910 hc        1 MOL      0.041445
     40 H16         4.2960   -0.4610   -4.7540 hc        1 MOL      0.041445
     41 N4          5.6550    0.5300   -2.6460 n         1 MOL     -0.628458
     42 C14         5.5220    1.8550   -2.0380 c3        1 MOL      0.174473
     43 C15         6.6530    2.2090   -1.0120 c         1 MOL      0.458518
     44 O9          7.6000    1.5490   -0.7660 o         1 MOL     -0.512654
     45 H17         6.2280    0.4100   -3.4750 hn        1 MOL      0.331339
     46 H18         4.5610    2.0620   -1.5610 h1        1 MOL      0.032427
     47 H19         5.6200    2.6420   -2.7910 h1        1 MOL      0.032427
     48 N5          6.4340    3.2100   -0.1900 n         1 MOL     -0.312561
     49 C16         5.3550    4.1470   -0.0520 c3        1 MOL     -0.207799
     50 C17         5.0260    4.5120    1.3280 c         1 MOL      0.706420
     51 O10         5.8610    4.5010    2.1990 o         1 MOL     -0.527785
     52 C18         5.7890    5.4240   -0.6960 c3        1 MOL     -0.206098
     53 C19         5.9820    5.3310   -2.1930 c         1 MOL      0.671396
     54 N6          7.1950    5.0650   -2.6550 n         1 MOL     -0.798096
     55 O11         5.0450    5.5970   -2.9460 o         1 MOL     -0.550484
     56 H20         7.1930    3.3860    0.4540 hn        1 MOL      0.264825
     57 H21         4.4740    3.7050   -0.5040 h1        1 MOL      0.134093
     58 H22         6.7280    5.8520   -0.3420 hc        1 MOL      0.071877
     59 H23         4.9730    6.1510   -0.5890 hc        1 MOL      0.071877
     60 H24         7.9590    4.8950   -2.0150 hn        1 MOL      0.365598
     61 H25         7.3820    5.1890   -3.6430 hn        1 MOL      0.365598
     62 N7          3.7720    4.9370    1.5500 n         1 MOL     -0.433626
     63 C20         3.2990    5.0880    2.9910 c3        1 MOL     -0.404029
     64 C21         1.8530    5.6510    3.2150 c         1 MOL      0.570142
     65 O12         1.2840    5.8400    4.2650 o         1 MOL     -0.532564
     66 H26         3.1340    4.6860    0.8080 hn        1 MOL      0.303350
     67 H27         4.0750    5.6560    3.5190 h1        1 MOL      0.193149
     68 H28         3.3390    4.0690    3.3850 h1        1 MOL      0.193149
     69 N8          1.2170    5.8430    2.0290 n         1 MOL     -0.144712
     70 C22        -0.2270    6.0670    1.9400 c3        1 MOL     -0.262021
     71 C23        -0.9350    4.7520    1.5540 c         1 MOL      0.574560
     72 O13        -0.3410    3.9220    0.8230 o         1 MOL     -0.541093
     73 C24        -0.5150    7.2030    0.9610 c3        1 MOL      0.514088
     74 C25         0.2910    8.4180    1.5010 c3        1 MOL     -0.322955
     75 O14        -0.0440    6.9170   -0.3460 oh        1 MOL     -0.633048
     76 H29         1.7760    5.6840    1.1960 hn        1 MOL      0.139485
     77 H30        -0.7160    6.3300    2.8750 h1        1 MOL      0.104450
     78 H31        -1.5810    7.4410    0.9850 h1        1 MOL     -0.047917
     79 H32        -0.1130    5.9680   -0.4980 ho        1 MOL      0.414276
     80 H33         1.3540    8.1720    1.5680 hc        1 MOL      0.072532
     81 H34         0.2060    9.3520    0.9300 hc        1 MOL      0.072532
     82 H35         0.0800    8.5800    2.5530 hc        1 MOL      0.072532
     83 N9         -2.1130    4.5900    2.0890 n         1 MOL     -0.392605
     84 C26        -2.9970    3.4520    1.7310 c3        1 MOL     -0.131241
     85 C27        -3.7850    3.7680    0.4610 c         1 MOL      0.366432
     86 O15        -4.2190    4.9110    0.1370 o         1 MOL     -0.529510
     87 C28        -3.9510    3.1320    2.9040 c3        1 MOL      0.175023
     88 C29        -4.9720    2.0040    2.7170 c3        1 MOL      0.204263
     89 C30        -3.2100    2.6920    4.1760 c3        1 MOL     -0.349086
     90 C31        -5.9720    1.5830    3.8620 c3        1 MOL     -0.145851
     91 H36        -2.4070    5.2150    2.8290 hn        1 MOL      0.283801
     92 H37        -2.3110    2.6000    1.6230 h1        1 MOL      0.178518
     93 H38        -4.5510    4.0210    3.1300 hc        1 MOL     -0.002087
     94 H39        -4.5780    1.0860    2.2810 hc        1 MOL     -0.069535
     95 H40        -5.6760    2.3570    1.9710 hc        1 MOL     -0.069535
     96 H41        -3.7990    2.8450    5.0700 hc        1 MOL      0.076796
     97 H42        -2.7850    1.6840    4.1810 hc        1 MOL      0.076796
     98 H43        -2.3320    3.3300    4.2380 hc        1 MOL      0.076796
     99 H44        -6.4100    2.4570    4.3530 hc        1 MOL      0.019188
    100 H45        -6.7850    1.0030    3.4080 hc        1 MOL      0.019188
    101 H46        -5.4700    1.0220    4.6390 hc        1 MOL      0.019188
    102 N10        -3.8770    2.7460   -0.4550 n         1 MOL     -0.138542
    103 C32        -4.6170    2.7490   -1.6810 c3        1 MOL     -0.022528
    104 C33        -5.5230    1.4930   -1.7680 c         1 MOL      0.450539
    105 O16        -6.2590    1.3130   -2.7620 o         1 MOL     -0.554201
    106 C34        -3.6710    2.8820   -2.8710 c3        1 MOL     -0.122859
    107 C35        -2.5510    1.8200   -2.7960 c         1 MOL      0.832145
    108 O17        -1.3550    2.2140   -2.6670 o         1 MOL     -0.796600
    109 O18        -2.7880    0.6100   -2.9070 o         1 MOL     -0.796600
    110 H47        -3.3650    1.9050   -0.2350 hn        1 MOL      0.195564
    111 H48        -5.3090    3.5900   -1.6230 h1        1 MOL      0.090566
    112 H49        -3.2210    3.8780   -2.9050 hc        1 MOL      0.034127
    113 H50        -4.1890    2.7340   -3.8220 hc        1 MOL      0.034127
    114 N11        -5.6500    0.5820   -0.7840 n         1 MOL     -0.489126
    115 C36        -6.5930   -0.5950   -0.8150 c3        1 MOL      0.459946
    116 C37        -5.9380   -1.8130   -0.1380 c         1 MOL      0.197048
    117 O19        -6.2500   -2.2390    0.9810 o         1 MOL     -0.469899
    118 C38        -7.9550   -0.1760   -0.2090 c3        1 MOL     -0.478506
    119 C39        -8.9810   -1.3020   -0.3630 ca        1 MOL      0.267052
    120 C40        -9.4530   -1.5480   -1.6360 ca        1 MOL     -0.227913
    121 C41        -9.6300   -1.8120    0.7450 ca        1 MOL     -0.227913
    122 C42       -10.4800   -2.4520   -1.8440 ca        1 MOL     -0.076062
    123 C43       -10.6470   -2.7350    0.5120 ca        1 MOL     -0.076062
    124 C44       -11.0690   -3.0430   -0.7820 ca        1 MOL     -0.157590
    125 H51        -4.9700    0.6630   -0.0480 hn        1 MOL      0.277181
    126 H52        -6.9110   -0.7780   -1.8440 h1        1 MOL      0.002653
    127 H53        -8.3130    0.7640   -0.6160 hc        1 MOL      0.145554
    128 H54        -7.7470    0.0120    0.8500 hc        1 MOL      0.145554
    129 H55        -9.0130   -0.9730   -2.4490 ha        1 MOL      0.140684
    130 H56        -9.4100   -1.5970    1.7810 ha        1 MOL      0.140684
    131 H57       -10.7570   -2.5810   -2.8780 ha        1 MOL      0.090933
    132 H58       -11.2200   -3.1560    1.3250 ha        1 MOL      0.090933
    133 H59       -11.9410   -3.6730   -0.8580 ha        1 MOL      0.096031
    134 N12        -5.0120   -2.4670   -0.8450 n         1 MOL     -0.015938
    135 C45        -4.3620   -3.7660   -0.5260 c3        1 MOL     -0.041455
    136 C46        -3.4410   -3.8160    0.7370 c         1 MOL      0.188635
    137 O20        -2.8950   -4.9390    1.0100 o         1 MOL     -0.482621
    138 C47        -3.7030   -4.2650   -1.8230 c3        1 MOL     -0.153829
    139 C48        -4.3570   -3.4140   -2.9090 c3        1 MOL      0.040755
    140 C49        -4.4950   -2.0630   -2.1800 c3        1 MOL     -0.251017
    141 H60        -5.1200   -4.5210   -0.3290 h1        1 MOL      0.115611
    142 H61        -2.6450   -3.9890   -1.7290 hc        1 MOL      0.092280
    143 H62        -3.8400   -5.3010   -2.1170 hc        1 MOL      0.092280
    144 H63        -3.8580   -3.5410   -3.8710 hc        1 MOL      0.004274
    145 H64        -5.3770   -3.7320   -3.1290 hc        1 MOL      0.004274
    146 H65        -3.6000   -1.4630   -2.0590 h1        1 MOL      0.129520
    147 H66        -5.1890   -1.4820   -2.7850 h1        1 MOL      0.129520
    148 N13        -3.2210   -2.7010    1.4160 n         1 MOL      0.003019
    149 C50        -2.4930   -2.7100    2.6890 c3        1 MOL     -0.283815
    150 C51        -3.4060   -3.2490    3.7890 c         1 MOL      0.583496
    151 O21        -2.9310   -3.8170    4.7580 o         1 MOL     -0.558407
    152 C52        -2.0990   -1.2570    2.9650 c3        1 MOL      0.127634
    153 C53        -1.3100   -0.5110    1.7970 c3        1 MOL     -0.120511
    154 C54        -2.0540   -0.2810    0.5060 c         1 MOL      0.562274
    155 O22        -1.5180   -0.8150   -0.5230 o         1 MOL     -0.642653
    156 O23        -3.1490    0.2710    0.4740 o         1 MOL     -0.642653
    157 H67        -3.5370   -1.7930    1.0950 hn        1 MOL      0.287639
    158 H68        -1.6370   -3.3800    2.6950 h1        1 MOL      0.147503
    159 H69        -1.5600   -1.1720    3.9090 hc        1 MOL     -0.003871
    160 H70        -2.9550   -0.6630    3.2870 hc        1 MOL     -0.003871
    161 H71        -0.3470   -1.0060    1.7290 hc        1 MOL      0.019125
    162 H72        -1.0930    0.4630    2.2420 hc        1 MOL      0.019125
    163 N14        -4.7390   -2.9630    3.6960 n         1 MOL     -0.219894
    164 C55        -5.7950   -3.4760    4.6010 c3        1 MOL     -0.223271
    165 H73        -6.6450   -3.8170    4.0110 h1        1 MOL      0.094022
    166 H74        -5.4020   -4.3090    5.1850 h1        1 MOL      0.094022
    167 H75        -6.1160   -2.6800    5.2740 h1        1 MOL      0.094022
    168 H76        -5.0920   -2.5300    2.8620 hn        1 MOL      0.162101
    169 Ca1        -0.4410   -0.5730   -2.8660 Ca        1 MOL      1.739498
    170 O24        -0.5950    0.4190   -5.2660 oh        1 MOL     -0.785263
    171 H77        -0.1500   -0.0530   -5.9750 ho        1 MOL      0.393398
    172 H78        -1.2090    0.9960   -5.7120 ho        1 MOL      0.393398
    173 O25         1.5070   -0.2640   -0.8760 oh        1 MOL     -0.785263
    174 H79         1.4510    0.4090   -0.2000 ho        1 MOL      0.393398
    175 H80         2.2570   -0.8050   -0.6210 ho        1 MOL      0.393398
    176 O26         0.2430   -3.0270   -1.3950 oh        1 MOL     -0.785263
    177 H81         0.8360   -3.7740   -1.3210 ho        1 MOL      0.393398
    178 H82         0.4280   -2.4920   -0.6150 ho        1 MOL      0.393398
    179 O27        -1.4400   -2.5610   -4.4380 oh        1 MOL     -0.785263
    180 H83        -1.4300   -2.5620   -5.4000 ho        1 MOL      0.393398
    181 H84        -1.5170   -3.4840   -4.1960 ho        1 MOL      0.393398
@<TRIPOS>BOND
     1    1    2 1   
     2    1    4 1   
     3    1    5 1   
     4    1    6 1   
     5    2    3 2   
     6    2    7 1   
     7    7    8 1   
     8    7   15 1   
     9    8    9 1   
    10    8   11 1   
    11    8   16 1   
    12    9   10 2   
    13    9   19 1   
    14   11   12 1   
    15   11   17 1   
    16   11   18 1   
    17   12   13 1   
    18   12   14 1   
    19   19   20 1   
    20   19   24 1   
    21   20   21 1   
    22   20   23 1   
    23   20   25 1   
    24   21   22 2   
    25   21   29 1   
    26   23   26 1   
    27   23   27 1   
    28   23   28 1   
    29   29   30 1   
    30   29   37 1   
    31   30   31 1   
    32   30   33 1   
    33   30   38 1   
    34   31   32 2   
    35   31   41 1   
    36   33   34 1   
    37   33   39 1   
    38   33   40 1   
    39   34   35 1   
    40   34   36 1   
    41   41   42 1   
    42   41   45 1   
    43   42   43 1   
    44   42   46 1   
    45   42   47 1   
    46   43   44 2   
    47   43   48 1   
    48   48   49 1   
    49   48   56 1   
    50   49   50 1   
    51   49   52 1   
    52   49   57 1   
    53   50   51 2   
    54   50   62 1   
    55   52   53 1   
    56   52   58 1   
    57   52   59 1   
    58   53   54 1   
    59   53   55 2   
    60   54   60 1   
    61   54   61 1   
    62   62   63 1   
    63   62   66 1   
    64   63   64 1   
    65   63   67 1   
    66   63   68 1   
    67   64   65 2   
    68   64   69 1   
    69   69   70 1   
    70   69   76 1   
    71   70   71 1   
    72   70   73 1   
    73   70   77 1   
    74   71   72 2   
    75   71   83 1   
    76   73   74 1   
    77   73   75 1   
    78   73   78 1   
    79   74   80 1   
    80   74   81 1   
    81   74   82 1   
    82   75   79 1   
    83   83   84 1   
    84   83   91 1   
    85   84   85 1   
    86   84   87 1   
    87   84   92 1   
    88   85   86 2   
    89   85  102 1   
    90   87   88 1   
    91   87   89 1   
    92   87   93 1   
    93   88   90 1   
    94   88   94 1   
    95   88   95 1   
    96   89   96 1   
    97   89   97 1   
    98   89   98 1   
    99   90   99 1   
   100   90  100 1   
   101   90  101 1   
   102  102  103 1   
   103  102  110 1   
   104  103  104 1   
   105  103  106 1   
   106  103  111 1   
   107  104  105 2   
   108  104  114 1   
   109  106  107 1   
   110  106  112 1   
   111  106  113 1   
   112  107  108 1   
   113  107  109 1   
   114  114  115 1   
   115  114  125 1   
   116  115  116 1   
   117  115  118 1   
   118  115  126 1   
   119  116  117 2   
   120  116  134 1   
   121  118  119 1   
   122  118  127 1   
   123  118  128 1   
   124  119  120 ar  
   125  119  121 ar  
   126  120  122 ar  
   127  120  129 1   
   128  121  123 ar  
   129  121  130 1   
   130  122  124 ar  
   131  122  131 1   
   132  123  124 ar  
   133  123  132 1   
   134  124  133 1   
   135  134  135 1   
   136  134  140 1   
   137  135  136 1   
   138  135  138 1   
   139  135  141 1   
   140  136  137 2   
   141  136  148 1   
   142  138  139 1   
   143  138  142 1   
   144  138  143 1   
   145  139  140 1   
   146  139  144 1   
   147  139  145 1   
   148  140  146 1   
   149  140  147 1   
   150  148  149 1   
   151  148  157 1   
   152  149  150 1   
   153  149  152 1   
   154  149  158 1   
   155  150  151 2   
   156  150  163 1   
   157  152  153 1   
   158  152  159 1   
   159  152  160 1   
   160  153  154 1   
   161  153  161 1   
   162  153  162 1   
   163  154  155 1   
   164  154  156 1   
   165  163  164 1   
   166  163  168 1   
   167  164  165 1   
   168  164  166 1   
   169  164  167 1   
   170  170  171 1   
   171  170  172 1   
   172  173  174 1   
   173  173  175 1   
   174  176  177 1   
   175  176  178 1   
   176  179  180 1   
   177  179  181 1   
@<TRIPOS>SUBSTRUCTURE
     1 MOL         1 TEMP              0 ****  ****    0 ROOT
