@<TRIPOS>MOLECULE
MOL
  179   176     1     0     0
SMALL
resp


@<TRIPOS>ATOM
      1 C1          0.6940   -3.2030    6.6430 c3        1 MOL     -0.402838
      2 C2          0.6880   -3.2100    5.1230 c         1 MOL      0.757881
      3 O1         -0.3750   -3.3600    4.4820 o         1 MOL     -0.638114
      4 H1          0.4270   -2.2100    7.0030 hc        1 MOL      0.111287
      5 H2         -0.0290   -3.9310    7.0140 hc        1 MOL      0.111287
      6 H3          1.6900   -3.4640    7.0040 hc        1 MOL      0.111287
      7 N1          1.8320   -3.0640    4.5620 n         1 MOL     -0.554364
      8 C3          2.0380   -2.7660    3.1500 c3        1 MOL     -0.153127
      9 C4          2.2580   -4.0490    2.3570 c         1 MOL      0.773650
     10 O2          3.1570   -4.8060    2.7720 o         1 MOL     -0.564970
     11 C5          3.2350   -1.7710    3.0580 c3        1 MOL     -0.039095
     12 C6          3.4370   -1.3050    1.5550 c         1 MOL      0.612182
     13 O3          4.0720   -0.2440    1.3470 o         1 MOL     -0.704016
     14 O4          3.0840   -1.9230    0.5620 o         1 MOL     -0.704016
     15 H4          2.7080   -3.1250    5.0650 hn        1 MOL      0.332417
     16 H5          1.1930   -2.1370    2.8480 h1        1 MOL      0.052894
     17 H6          4.1550   -2.2580    3.3870 hc        1 MOL      0.056088
     18 H7          3.0540   -0.9510    3.7460 hc        1 MOL      0.056088
     19 N2          1.5570   -4.2450    1.1990 n         1 MOL     -0.522919
     20 C7          1.4720   -5.4540    0.4160 c3        1 MOL      0.046849
     21 C8          2.6030   -5.5380   -0.6580 c         1 MOL      0.622594
     22 O5          2.7790   -6.5900   -1.1970 o         1 MOL     -0.553472
     23 C9          0.0970   -5.5760   -0.2320 c3        1 MOL      0.014347
     24 C10        -0.4060   -7.0040   -0.5740 c3        1 MOL     -0.006605
     25 C11        -1.6390   -6.8600   -1.4520 c3        1 MOL      0.105095
     26 C12        -2.0500   -8.2120   -1.8580 c3        1 MOL     -0.004341
     27 N3         -3.3390   -8.1910   -2.4320 n4        1 MOL     -0.087729
     28 H8          1.0490   -3.4700    0.8060 hn        1 MOL      0.311889
     29 H9          1.7100   -6.2600    1.0990 h1        1 MOL      0.050141
     30 H10         0.2680   -5.1580   -1.2160 hc        1 MOL      0.005121
     31 H11        -0.6800   -5.0420    0.3110 hc        1 MOL      0.005121
     32 H12        -0.7230   -7.5630    0.3050 hc        1 MOL      0.011568
     33 H13         0.4400   -7.4100   -1.1340 hc        1 MOL      0.011568
     34 H14        -1.5650   -6.1590   -2.2930 hc        1 MOL      0.007344
     35 H15        -2.4080   -6.4610   -0.7910 hc        1 MOL      0.007344
     36 H16        -2.0430   -8.9690   -1.0710 hx        1 MOL      0.063366
     37 H17        -1.3270   -8.4860   -2.6250 hx        1 MOL      0.063366
     38 H18        -3.5130   -7.3500   -2.9550 hn        1 MOL      0.232273
     39 H19        -3.4410   -8.9370   -3.1140 hn        1 MOL      0.232273
     40 H20        -4.1210   -8.2630   -1.8110 hn        1 MOL      0.232273
     41 N4          3.3450   -4.4340   -0.9330 n         1 MOL     -0.374785
     42 C13         4.4920   -4.3270   -1.8660 c3        1 MOL      0.076997
     43 C14         5.8380   -3.7350   -1.2150 c         1 MOL      0.388899
     44 O6          6.8530   -3.8790   -1.8190 o         1 MOL     -0.490405
     45 C15         4.0740   -3.5390   -3.0940 c3        1 MOL     -0.270350
     46 C16         3.7590   -2.0900   -2.7650 c         1 MOL      0.797717
     47 O7          4.6340   -1.2510   -2.4770 o         1 MOL     -0.741284
     48 O8          2.5250   -1.7530   -2.7860 o         1 MOL     -0.741284
     49 H21         3.3410   -3.6300   -0.3300 hn        1 MOL      0.052887
     50 H22         4.8070   -5.3150   -2.2070 h1        1 MOL      0.090050
     51 H23         3.3560   -3.9880   -3.7690 hc        1 MOL      0.082361
     52 H24         4.8790   -3.5120   -3.8280 hc        1 MOL      0.082361
     53 N5          5.6600   -3.0030   -0.0860 n         1 MOL     -0.147961
     54 C17         6.8100   -2.4170    0.6540 c3        1 MOL     -0.288258
     55 C18         7.2190   -0.9810    0.3510 c         1 MOL      0.550683
     56 O9          8.0090   -0.4320    1.1590 o         1 MOL     -0.550553
     57 H25         4.7510   -3.1100    0.3420 hn        1 MOL      0.212792
     58 H26         7.7290   -2.9830    0.4950 h1        1 MOL      0.145283
     59 H27         6.6180   -2.4500    1.7170 h1        1 MOL      0.145283
     60 N6          6.6540   -0.3630   -0.7190 n         1 MOL     -0.165271
     61 C19         7.1940    0.9520   -1.1220 c3        1 MOL     -0.012702
     62 C20         6.1050    2.0910   -1.0290 c         1 MOL      0.583610
     63 O10         4.9230    1.8210   -0.9630 o         1 MOL     -0.514957
     64 C21         7.7610    0.8950   -2.6250 c3        1 MOL     -0.357701
     65 C22         8.8880   -0.1330   -2.8470 c         1 MOL      0.724599
     66 N7          8.8140   -1.1090   -3.7550 n         1 MOL     -0.851975
     67 O11         9.9980   -0.0930   -2.2480 o         1 MOL     -0.566788
     68 H28         5.9930   -0.8770   -1.2800 hn        1 MOL      0.185694
     69 H29         8.0150    1.2810   -0.4830 h1        1 MOL      0.066596
     70 H30         8.1680    1.8440   -2.9570 hc        1 MOL      0.089027
     71 H31         6.9570    0.5150   -3.2500 hc        1 MOL      0.089027
     72 H32         7.9070   -1.2930   -4.1780 hn        1 MOL      0.395333
     73 H33         9.5920   -1.7500   -3.7800 hn        1 MOL      0.395333
     74 N8          6.5530    3.3630   -0.9590 n         1 MOL     -0.448683
     75 C23         5.7340    4.5490   -1.0350 c3        1 MOL     -0.031790
     76 C24         4.5730    4.4760   -0.0460 c         1 MOL      0.525660
     77 O12         4.7830    4.2100    1.1230 o         1 MOL     -0.471653
     78 H34         7.5650    3.4380   -0.9870 hn        1 MOL      0.332784
     79 H35         5.2950    4.5570   -2.0380 h1        1 MOL      0.069633
     80 H36         6.3000    5.4730   -1.0070 h1        1 MOL      0.069633
     81 N9          3.3580    4.7370   -0.5420 n         1 MOL     -0.480865
     82 C25         2.1060    4.8600    0.2610 c3        1 MOL      0.065353
     83 C26         1.4920    3.4630    0.5160 c         1 MOL      0.711066
     84 O13         1.8520    2.5010   -0.2120 o         1 MOL     -0.585739
     85 C27         1.1330    5.7480   -0.5130 c3        1 MOL     -0.395847
     86 C28         1.6160    7.2120   -0.5270 ca        1 MOL      0.167405
     87 C29         1.4810    7.9580    0.7130 ca        1 MOL     -0.171338
     88 C30         2.1970    7.8410   -1.6280 ca        1 MOL     -0.171338
     89 C31         1.8280    9.2980    0.8450 ca        1 MOL     -0.265331
     90 C32         2.5990    9.1840   -1.4710 ca        1 MOL     -0.265331
     91 C33         2.4590    9.9300   -0.2550 ca        1 MOL      0.350934
     92 O14         2.6900   11.2890   -0.2400 oh        1 MOL     -0.503903
     93 H37         3.2120    4.7720   -1.5350 hn        1 MOL      0.288206
     94 H38         2.3420    5.3940    1.1830 h1        1 MOL      0.104202
     95 H39         0.2350    5.7500    0.1020 hc        1 MOL      0.122177
     96 H40         0.9840    5.4390   -1.5430 hc        1 MOL      0.122177
     97 H41         1.0480    7.4590    1.5650 ha        1 MOL      0.132452
     98 H42         2.1710    7.3050   -2.5710 ha        1 MOL      0.132452
     99 H43         1.8150    9.7600    1.8230 ha        1 MOL      0.160344
    100 H44         2.9410    9.6650   -2.3820 ha        1 MOL      0.160344
    101 H45         2.3200   11.7210    0.5420 ho        1 MOL      0.389028
    102 N10         0.5620    3.3590    1.5210 n         1 MOL     -0.657164
    103 C34         0.2260    2.1290    2.2620 c3        1 MOL      0.039509
    104 C35        -0.0820    0.9110    1.4490 c         1 MOL      0.378339
    105 O15         0.8290    0.2550    1.0270 o         1 MOL     -0.404857
    106 C36         1.2290    1.8480    3.4120 c3        1 MOL      0.248586
    107 C37         0.7600    0.7150    4.3970 c3        1 MOL     -0.048338
    108 C38         1.5650    3.1370    4.1410 c3        1 MOL     -0.308891
    109 C39        -0.5140    0.8940    5.1490 c3        1 MOL     -0.319043
    110 H46         0.1690    4.2320    1.8530 hn        1 MOL      0.348516
    111 H47        -0.6810    2.2960    2.8460 h1        1 MOL      0.066220
    112 H48         2.0990    1.3850    2.9560 hc        1 MOL     -0.028535
    113 H49         1.5940    0.5080    5.0670 hc        1 MOL      0.072259
    114 H50         0.5270   -0.1590    3.7840 hc        1 MOL      0.072259
    115 H51         2.0230    3.9180    3.5270 hc        1 MOL      0.073155
    116 H52         0.6960    3.4910    4.6790 hc        1 MOL      0.073155
    117 H53         2.3440    2.9400    4.8910 hc        1 MOL      0.073155
    118 H54        -0.3940    1.7830    5.7650 hc        1 MOL      0.079884
    119 H55        -1.3770    0.9970    4.5040 hc        1 MOL      0.079884
    120 H56        -0.7320    0.0740    5.8240 hc        1 MOL      0.079884
    121 N11        -1.3710    0.4460    1.3350 n         1 MOL     -0.069399
    122 C40        -1.7650   -0.7740    0.5910 c3        1 MOL     -0.720173
    123 C41        -3.2340   -0.8790    0.1560 c         1 MOL      0.925870
    124 O16        -3.6100   -1.7450   -0.6130 o         1 MOL     -0.606629
    125 C42        -1.4580   -2.1080    1.3480 c3        1 MOL      0.464944
    126 O17        -2.1680   -2.1240    2.5120 oh        1 MOL     -0.604574
    127 H57        -2.1750    0.9730    1.6570 hn        1 MOL      0.170847
    128 H58        -1.3870   -0.7650   -0.4290 h1        1 MOL      0.195777
    129 H59        -0.3820   -2.2060    1.4560 h1        1 MOL     -0.047633
    130 H60        -1.9190   -2.9110    0.7800 h1        1 MOL     -0.047633
    131 H61        -1.7330   -2.7170    3.1300 ho        1 MOL      0.415460
    132 N12        -4.1310   -0.0500    0.7130 n         1 MOL     -0.669098
    133 C43        -5.5560   -0.0670    0.2860 c3        1 MOL      0.133717
    134 C44        -5.6250    0.4500   -1.1330 c         1 MOL      0.663326
    135 O18        -4.7270    1.0940   -1.6230 o         1 MOL     -0.588704
    136 C45        -6.3810    0.7380    1.2880 c3        1 MOL     -0.333988
    137 H62        -3.8690    0.5510    1.4800 hn        1 MOL      0.360718
    138 H63        -5.7910   -1.1250    0.3060 h1        1 MOL      0.104981
    139 H64        -6.4630    0.1930    2.2310 hc        1 MOL      0.097930
    140 H65        -5.8570    1.6820    1.3620 hc        1 MOL      0.097930
    141 H66        -7.4280    0.8770    1.0090 hc        1 MOL      0.097930
    142 N13        -6.6660    0.0280   -1.8640 n         1 MOL     -0.623821
    143 C46        -7.9280   -0.6160   -1.5070 c3        1 MOL      0.072734
    144 C47        -9.1310    0.0050   -2.2030 c         1 MOL      0.366120
    145 O19        -9.0400    0.2770   -3.4220 o         1 MOL     -0.504350
    146 C48        -7.7210   -2.0480   -1.8920 c3        1 MOL     -0.015812
    147 H67        -6.6050    0.3270   -2.8340 hn        1 MOL      0.342856
    148 H68        -8.0740   -0.6290   -0.4290 h1        1 MOL      0.066649
    149 H69        -7.1480   -2.6980   -1.2370 hc        1 MOL      0.018137
    150 H70        -8.7110   -2.5120   -1.9600 hc        1 MOL      0.018137
    151 H71        -7.1790   -2.2060   -2.8270 hc        1 MOL      0.018137
    152 N14       -10.2960    0.2980   -1.5360 n         1 MOL     -0.181718
    153 C49       -10.5670    0.0900   -0.1080 c3        1 MOL     -0.109357
    154 C50        -9.9220    1.1560    0.7390 c         1 MOL      0.568325
    155 O20        -9.7160    0.9750    1.9690 o         1 MOL     -0.561501
    156 C51       -12.0150   -0.1550    0.1620 c3        1 MOL     -0.031464
    157 C52       -12.8810    1.0800   -0.1010 c3        1 MOL     -0.176550
    158 C53       -13.4650    0.9920   -1.5510 c         1 MOL      0.690648
    159 O21       -12.7400    1.2480   -2.5320 o         1 MOL     -0.656098
    160 O22       -14.6990    0.7290   -1.6200 o         1 MOL     -0.656098
    161 H72       -11.0750    0.5310   -2.1270 hn        1 MOL      0.197248
    162 H73       -10.0890   -0.8070    0.2740 h1        1 MOL      0.029824
    163 H74       -12.0630   -0.3840    1.2280 hc        1 MOL      0.048637
    164 H75       -12.3710   -0.9920   -0.4410 hc        1 MOL      0.048637
    165 H76       -12.3290    1.9680    0.1860 hc        1 MOL      0.026578
    166 H77       -13.7250    0.8900    0.5660 hc        1 MOL      0.026578
    167 N15        -9.5600    2.2800    0.1460 n         1 MOL     -0.261588
    168 C54        -8.9360    3.4340    0.8320 c3        1 MOL     -0.154321
    169 H78        -9.7060    4.1580    1.1000 h1        1 MOL      0.082561
    170 H79        -8.4310    3.0910    1.7350 h1        1 MOL      0.082561
    171 H80        -8.2120    3.9050    0.1670 h1        1 MOL      0.082561
    172 H81        -9.9370    2.5530   -0.7570 hn        1 MOL      0.236145
    173 Ca1         2.7660    0.1730   -1.1030 Ca        1 MOL      1.702949
    174 O23         0.2740    0.6420   -2.1550 oh        1 MOL     -0.849783
    175 H82        -0.2560    0.0600   -2.7060 ho        1 MOL      0.423092
    176 H83        -0.3030    1.3870   -1.9760 ho        1 MOL      0.423092
    177 O24         2.8610    1.5000   -3.5070 oh        1 MOL     -0.849783
    178 H84         2.7450    1.1630   -4.3970 ho        1 MOL      0.423092
    179 H85         2.6420    2.4270   -3.5700 ho        1 MOL      0.423092
@<TRIPOS>BOND
     1    1    2 1   
     2    1    4 1   
     3    1    5 1   
     4    1    6 1   
     5    2    3 2   
     6    2    7 1   
     7    7    8 1   
     8    7   15 1   
     9    8    9 1   
    10    8   11 1   
    11    8   16 1   
    12    9   10 2   
    13    9   19 1   
    14   11   12 1   
    15   11   17 1   
    16   11   18 1   
    17   12   13 1   
    18   12   14 1   
    19   19   20 1   
    20   19   28 1   
    21   20   21 1   
    22   20   23 1   
    23   20   29 1   
    24   21   22 2   
    25   21   41 1   
    26   23   24 1   
    27   23   30 1   
    28   23   31 1   
    29   24   25 1   
    30   24   32 1   
    31   24   33 1   
    32   25   26 1   
    33   25   34 1   
    34   25   35 1   
    35   26   27 1   
    36   26   36 1   
    37   26   37 1   
    38   27   38 1   
    39   27   39 1   
    40   27   40 1   
    41   41   42 1   
    42   41   49 1   
    43   42   43 1   
    44   42   45 1   
    45   42   50 1   
    46   43   44 2   
    47   43   53 1   
    48   45   46 1   
    49   45   51 1   
    50   45   52 1   
    51   46   47 1   
    52   46   48 1   
    53   53   54 1   
    54   53   57 1   
    55   54   55 1   
    56   54   58 1   
    57   54   59 1   
    58   55   56 2   
    59   55   60 1   
    60   60   61 1   
    61   60   68 1   
    62   61   62 1   
    63   61   64 1   
    64   61   69 1   
    65   62   63 2   
    66   62   74 1   
    67   64   65 1   
    68   64   70 1   
    69   64   71 1   
    70   65   66 1   
    71   65   67 2   
    72   66   72 1   
    73   66   73 1   
    74   74   75 1   
    75   74   78 1   
    76   75   76 1   
    77   75   79 1   
    78   75   80 1   
    79   76   77 2   
    80   76   81 1   
    81   81   82 1   
    82   81   93 1   
    83   82   83 1   
    84   82   85 1   
    85   82   94 1   
    86   83   84 2   
    87   83  102 1   
    88   85   86 1   
    89   85   95 1   
    90   85   96 1   
    91   86   87 ar  
    92   86   88 ar  
    93   87   89 ar  
    94   87   97 1   
    95   88   90 ar  
    96   88   98 1   
    97   89   91 ar  
    98   89   99 1   
    99   90   91 ar  
   100   90  100 1   
   101   91   92 1   
   102   92  101 1   
   103  102  103 1   
   104  102  110 1   
   105  103  104 1   
   106  103  106 1   
   107  103  111 1   
   108  104  105 2   
   109  104  121 1   
   110  106  107 1   
   111  106  108 1   
   112  106  112 1   
   113  107  109 1   
   114  107  113 1   
   115  107  114 1   
   116  108  115 1   
   117  108  116 1   
   118  108  117 1   
   119  109  118 1   
   120  109  119 1   
   121  109  120 1   
   122  121  122 1   
   123  121  127 1   
   124  122  123 1   
   125  122  125 1   
   126  122  128 1   
   127  123  124 2   
   128  123  132 1   
   129  125  126 1   
   130  125  129 1   
   131  125  130 1   
   132  126  131 1   
   133  132  133 1   
   134  132  137 1   
   135  133  134 1   
   136  133  136 1   
   137  133  138 1   
   138  134  135 2   
   139  134  142 1   
   140  136  139 1   
   141  136  140 1   
   142  136  141 1   
   143  142  143 1   
   144  142  147 1   
   145  143  144 1   
   146  143  146 1   
   147  143  148 1   
   148  144  145 2   
   149  144  152 1   
   150  146  149 1   
   151  146  150 1   
   152  146  151 1   
   153  152  153 1   
   154  152  161 1   
   155  153  154 1   
   156  153  156 1   
   157  153  162 1   
   158  154  155 2   
   159  154  167 1   
   160  156  157 1   
   161  156  163 1   
   162  156  164 1   
   163  157  158 1   
   164  157  165 1   
   165  157  166 1   
   166  158  159 1   
   167  158  160 1   
   168  167  168 1   
   169  167  172 1   
   170  168  169 1   
   171  168  170 1   
   172  168  171 1   
   173  174  175 1   
   174  174  176 1   
   175  177  178 1   
   176  177  179 1   
@<TRIPOS>SUBSTRUCTURE
     1 MOL         1 TEMP              0 ****  ****    0 ROOT
