@<TRIPOS>MOLECULE
MOL
  198   191     1     0     0
SMALL
resp


@<TRIPOS>ATOM
      1 C1          5.5850    1.7470    5.8960 c3        1 MOL     -0.246309
      2 C2          4.9160    1.4750    4.5220 c         1 MOL      0.668015
      3 O1          4.0330    2.1760    4.0760 o         1 MOL     -0.574236
      4 H1          5.5260    0.8500    6.5120 hc        1 MOL      0.065990
      5 H2          6.6310    2.0160    5.7450 hc        1 MOL      0.065990
      6 H3          5.0680    2.5650    6.3970 hc        1 MOL      0.065990
      7 N1          5.3320    0.3680    3.9160 n         1 MOL     -0.512130
      8 C3          4.9890   -0.1240    2.5530 c3        1 MOL      0.034976
      9 C4          3.5180   -0.4720    2.1450 c         1 MOL      0.371186
     10 O2          3.2610   -0.9310    1.0110 o         1 MOL     -0.340050
     11 C5          5.9330   -1.3030    2.1620 c3        1 MOL     -0.057486
     12 C6          6.4050   -2.2060    3.2840 c         1 MOL      0.612084
     13 O3          6.0170   -3.4430    3.2750 o         1 MOL     -0.688958
     14 O4          7.2830   -1.7900    4.1390 o         1 MOL     -0.688958
     15 H4          6.0600   -0.0160    4.4910 hn        1 MOL      0.259375
     16 H5          5.3360    0.7500    2.0000 h1        1 MOL      0.122899
     17 H6          6.7770   -0.9150    1.5970 hc        1 MOL      0.042969
     18 H7          5.3750   -1.9840    1.5150 hc        1 MOL      0.042969
     19 N2          2.6000   -0.0680    3.0220 n         1 MOL     -0.304651
     20 C7          1.2340   -0.4940    2.9580 c3        1 MOL      0.027321
     21 C8          0.3400    0.8180    3.0000 c         1 MOL      0.735040
     22 O5          0.3930    1.5810    3.9480 o         1 MOL     -0.573844
     23 C9          0.9120   -1.3860    4.2110 c3        1 MOL     -0.352151
     24 C10        -0.5190   -1.8630    4.4320 c3        1 MOL      0.158629
     25 C11        -0.6370   -2.5110    5.7890 c3        1 MOL     -0.141704
     26 C12        -2.0500   -3.0990    5.9380 c3        1 MOL      0.082332
     27 N3         -2.3580   -3.5170    7.3480 n4        1 MOL     -0.324918
     28 H8          2.8270    0.6840    3.6620 hn        1 MOL      0.262184
     29 H9          1.0620   -1.0740    2.0520 h1        1 MOL      0.152154
     30 H10         1.2730   -0.8820    5.1120 hc        1 MOL      0.097072
     31 H11         1.5490   -2.2750    4.1250 hc        1 MOL      0.097072
     32 H12        -0.8410   -2.5230    3.6230 hc        1 MOL      0.034893
     33 H13        -1.2700   -1.0690    4.4170 hc        1 MOL      0.034893
     34 H14        -0.4420   -1.7250    6.5160 hc        1 MOL      0.055303
     35 H15        -0.0050   -3.3800    5.9080 hc        1 MOL      0.055303
     36 H16        -2.2250   -3.9680    5.3090 hx        1 MOL      0.092781
     37 H17        -2.7810   -2.2990    5.7570 hx        1 MOL      0.092781
     38 H18        -1.6540   -4.1060    7.7640 hn        1 MOL      0.308598
     39 H19        -2.4240   -2.7240    7.9680 hn        1 MOL      0.308598
     40 H20        -3.2380   -4.0150    7.4040 hn        1 MOL      0.308598
     41 N4         -0.5680    1.1030    2.0400 n         1 MOL     -0.363842
     42 C13        -1.0050    0.2880    0.8880 c3        1 MOL     -0.171542
     43 C14        -1.5900   -1.0750    1.2930 c         1 MOL      0.113719
     44 O6         -0.9660   -2.0680    1.0230 o         1 MOL     -0.438996
     45 C15        -0.0040    0.1910   -0.3110 c3        1 MOL     -0.662473
     46 C16        -0.0120    1.4100   -1.2490 c         1 MOL      0.943243
     47 O7         -0.6980    2.3800   -0.8430 o         1 MOL     -0.807771
     48 O8          0.6170    1.4440   -2.3230 o         1 MOL     -0.807771
     49 H21        -0.7830    2.0850    1.9670 hn        1 MOL      0.189707
     50 H22        -1.9020    0.7750    0.4970 h1        1 MOL      0.149555
     51 H23        -0.1550   -0.6420   -0.9990 hc        1 MOL      0.276476
     52 H24         1.0210    0.2210    0.0730 hc        1 MOL      0.276476
     53 N5         -2.8670   -1.2220    1.6870 n         1 MOL     -0.192165
     54 C17        -3.8440   -0.1470    1.9310 c3        1 MOL     -0.135307
     55 C18        -4.7470   -0.4820    3.1300 c         1 MOL      0.666476
     56 O9         -4.3890   -1.2940    3.9680 o         1 MOL     -0.666546
     57 H25        -3.1270   -2.1840    1.8680 hn        1 MOL      0.232188
     58 H26        -4.4150   -0.0350    1.0130 h1        1 MOL      0.122789
     59 H27        -3.3640    0.8050    2.1470 h1        1 MOL      0.122789
     60 N6         -5.7900    0.2810    3.2960 n         1 MOL     -0.488876
     61 C19        -6.2560    1.3750    2.3220 c3        1 MOL      0.109638
     62 C20        -7.0510    0.7190    1.1650 c         1 MOL      0.547742
     63 O10        -7.5050   -0.4270    1.2740 o         1 MOL     -0.472294
     64 C21        -7.1920    2.2820    3.0830 c3        1 MOL     -0.279737
     65 C22        -8.2800    1.6890    3.9880 c         1 MOL      0.788603
     66 O11        -7.9770    1.1750    5.0650 o         1 MOL     -0.711337
     67 O12        -9.4900    1.7190    3.6430 o         1 MOL     -0.711337
     68 H28        -6.4400   -0.0550    3.9960 hn        1 MOL      0.323886
     69 H29        -5.4910    1.9240    1.7640 h1        1 MOL     -0.016702
     70 H30        -7.7790    2.9030    2.4090 hc        1 MOL      0.030134
     71 H31        -6.5690    2.8430    3.7790 hc        1 MOL      0.030134
     72 N7         -7.2080    1.5480    0.1210 n         1 MOL     -0.367347
     73 C23        -7.8440    1.0990   -1.1730 c3        1 MOL     -0.327327
     74 C24        -6.8530    0.2390   -1.9440 c         1 MOL      0.481899
     75 O13        -7.1380   -0.8790   -2.3860 o         1 MOL     -0.495966
     76 H32        -6.9850    2.5210    0.2480 hn        1 MOL      0.292041
     77 H33        -7.9890    1.9470   -1.8510 h1        1 MOL      0.183944
     78 H34        -8.7470    0.5260   -1.0010 h1        1 MOL      0.183944
     79 N8         -5.5690    0.7570   -2.0750 n         1 MOL     -0.349829
     80 C25        -4.5630    0.1510   -3.0030 c3        1 MOL      0.042587
     81 C26        -3.7480   -0.8490   -2.1160 c         1 MOL      0.435809
     82 O14        -2.6800   -0.5500   -1.6180 o         1 MOL     -0.468114
     83 C27        -3.7350    1.1740   -3.7950 c3        1 MOL      0.424305
     84 C28        -4.6110    2.2080   -4.5630 c3        1 MOL     -0.223521
     85 O15        -3.0690    0.4810   -4.8250 oh        1 MOL     -0.594950
     86 H35        -5.3470    1.5920   -1.5410 hn        1 MOL      0.196420
     87 H36        -5.0850   -0.4350   -3.7660 h1        1 MOL      0.114585
     88 H37        -3.0060    1.6000   -3.1080 h1        1 MOL     -0.025898
     89 H38        -2.3120    1.0420   -5.0030 ho        1 MOL      0.363213
     90 H39        -5.2410    1.6340   -5.2470 hc        1 MOL      0.036232
     91 H40        -5.2750    2.6220   -3.7980 hc        1 MOL      0.036232
     92 H41        -3.9820    2.9880   -4.9980 hc        1 MOL      0.036232
     93 N9         -4.2650   -2.0750   -2.0090 n         1 MOL     -0.338123
     94 C29        -3.6250   -3.2830   -1.2960 c3        1 MOL     -0.043414
     95 C30        -2.5000   -3.8520   -2.1220 c         1 MOL      0.220667
     96 O16        -2.1390   -5.0480   -1.9090 o         1 MOL     -0.529883
     97 C31        -4.6360   -4.2540   -0.7930 c3        1 MOL      0.247681
     98 C32        -5.6570   -4.7640   -1.8840 c3        1 MOL      0.059133
     99 C33        -5.4200   -3.5140    0.3180 c3        1 MOL     -0.462618
    100 C34        -6.2840   -6.0740   -1.4770 c3        1 MOL     -0.283722
    101 H42        -5.1800   -2.1970   -2.4000 hn        1 MOL      0.198415
    102 H43        -3.0810   -2.9530   -0.4040 h1        1 MOL      0.193900
    103 H44        -4.0470   -5.0030   -0.2720 hc        1 MOL     -0.005200
    104 H45        -5.0760   -4.8390   -2.8010 hc        1 MOL      0.031178
    105 H46        -6.2840   -3.9230   -2.1690 hc        1 MOL      0.031178
    106 H47        -4.8760   -3.5050    1.2640 hc        1 MOL      0.111053
    107 H48        -5.6630   -2.4860    0.0470 hc        1 MOL      0.111053
    108 H49        -6.3430   -4.0960    0.3990 hc        1 MOL      0.111053
    109 H50        -6.8460   -6.4260   -2.3390 hc        1 MOL      0.071643
    110 H51        -5.5050   -6.8220   -1.4220 hc        1 MOL      0.071643
    111 H52        -6.9020   -5.9310   -0.5870 hc        1 MOL      0.071643
    112 N10        -1.8260   -3.0860   -2.9660 n         1 MOL      0.097166
    113 C35        -0.7220   -3.5880   -3.8250 c3        1 MOL      0.001458
    114 C36         0.6290   -3.8100   -3.1980 c         1 MOL      0.358089
    115 O17         1.3110   -4.5780   -3.8200 o         1 MOL     -0.500612
    116 C37        -0.5660   -2.6320   -4.9900 c3        1 MOL      0.207220
    117 C38        -0.0050   -1.2530   -4.7680 c3        1 MOL     -0.125803
    118 O18        -1.8170   -2.3740   -5.6280 oh        1 MOL     -0.660236
    119 H53        -2.2040   -2.1670   -3.1500 hn        1 MOL      0.022464
    120 H54        -1.0170   -4.5510   -4.2230 h1        1 MOL      0.095955
    121 H55         0.1290   -3.1220   -5.6750 h1        1 MOL      0.035882
    122 H56        -1.5960   -1.6930   -6.2730 ho        1 MOL      0.403085
    123 H57        -0.0840   -0.7170   -5.7090 hc        1 MOL      0.040459
    124 H58        -0.4890   -0.6730   -3.9950 hc        1 MOL      0.040459
    125 H59         1.0600   -1.3670   -4.5480 hc        1 MOL      0.040459
    126 N11         0.8830   -3.0950   -2.0800 n         1 MOL     -0.212901
    127 C39         2.1860   -2.9690   -1.3710 c3        1 MOL     -0.005509
    128 C40         3.2690   -2.2350   -2.2630 c         1 MOL      0.298913
    129 O19         3.2000   -2.3200   -3.4530 o         1 MOL     -0.481712
    130 C41         2.7020   -4.2440   -0.5650 c3        1 MOL      0.460560
    131 C42         1.6630   -4.7040    0.4640 c3        1 MOL     -0.240860
    132 O20         3.9170   -4.0490    0.1540 oh        1 MOL     -0.644810
    133 H60         0.0600   -2.6470   -1.6960 hn        1 MOL      0.224204
    134 H61         1.9920   -2.2240   -0.6030 h1        1 MOL      0.016649
    135 H62         2.8470   -5.1040   -1.2170 h1        1 MOL     -0.002022
    136 H63         3.6520   -3.7870    1.0400 ho        1 MOL      0.362426
    137 H64         1.9360   -5.6890    0.8560 hc        1 MOL      0.046733
    138 H65         1.6690   -3.9440    1.2430 hc        1 MOL      0.046733
    139 H66         0.6850   -4.6760   -0.0220 hc        1 MOL      0.046733
    140 N12         4.1220   -1.4520   -1.6430 n         1 MOL     -0.000525
    141 C43         5.1630   -0.5520   -2.1950 c3        1 MOL     -0.153600
    142 C44         4.9360    0.9650   -2.1570 c         1 MOL      0.665908
    143 O21         5.5160    1.7470   -2.9070 o         1 MOL     -0.626680
    144 C45         6.5000   -0.8870   -1.5600 c3        1 MOL     -0.116647
    145 C46         6.8580   -2.4120   -1.7610 c3        1 MOL      0.154257
    146 C47         8.3020   -2.6140   -1.2200 c3        1 MOL     -0.052965
    147 C48         8.6650   -4.0750   -1.1210 c3        1 MOL      0.104884
    148 N13         8.6420   -4.7820   -2.4370 n4        1 MOL     -0.382623
    149 H67         3.9890   -1.4300   -0.6400 hn        1 MOL      0.036947
    150 H68         5.2550   -0.7600   -3.2600 h1        1 MOL      0.064559
    151 H69         6.3770   -0.6840   -0.5020 hc        1 MOL      0.063048
    152 H70         7.3700   -0.2650   -1.8130 hc        1 MOL      0.063048
    153 H71         6.9240   -2.6460   -2.8240 hc        1 MOL     -0.020392
    154 H72         6.1750   -3.0850   -1.2490 hc        1 MOL     -0.020392
    155 H73         8.2830   -2.1740   -0.2330 hc        1 MOL      0.019894
    156 H74         8.9950   -2.1950   -1.9450 hc        1 MOL      0.019894
    157 H75         8.0690   -4.6080   -0.3850 hx        1 MOL      0.069003
    158 H76         9.6770   -4.1440   -0.7290 hx        1 MOL      0.069003
    159 H77         9.4170   -4.4950   -3.0160 hn        1 MOL      0.324596
    160 H78         8.8110   -5.7530   -2.2120 hn        1 MOL      0.324596
    161 H79         7.7600   -4.7680   -2.9130 hn        1 MOL      0.324596
    162 N14         4.1020    1.3800   -1.1780 n         1 MOL     -0.270178
    163 C49         3.9400    2.8010   -0.8270 c3        1 MOL      0.055938
    164 C50         5.2180    3.5190   -0.4860 c         1 MOL      0.333384
    165 O22         6.0020    3.0190    0.3730 o         1 MOL     -0.551304
    166 C51         3.0320    2.8310    0.3320 c3        1 MOL      0.412034
    167 C52         2.9130    4.0570    1.1690 c3        1 MOL     -0.682353
    168 C53         2.4190    5.2700    0.4380 c         1 MOL      0.969243
    169 O23         3.2390    6.0920    0.0560 o         1 MOL     -0.811519
    170 O24         1.2040    5.5170    0.3320 o         1 MOL     -0.811519
    171 H80         3.5960    0.7150   -0.6130 hn        1 MOL      0.052459
    172 H81         3.4860    3.2940   -1.6880 h1        1 MOL      0.021348
    173 H82         3.3610    2.1090    1.0920 hc        1 MOL     -0.125205
    174 H83         2.0850    2.4180   -0.0060 hc        1 MOL     -0.125205
    175 H84         3.8420    4.2140    1.7120 hc        1 MOL      0.183355
    176 H85         2.1290    3.8840    1.9120 hc        1 MOL      0.183355
    177 N15         5.5730    4.5370   -1.2650 n         1 MOL      0.114288
    178 C54         6.9290    5.1180   -1.1560 c3        1 MOL     -0.368716
    179 H86         6.8910    6.1780   -1.4060 h1        1 MOL      0.125112
    180 H87         7.2950    4.9980   -0.1370 h1        1 MOL      0.125112
    181 H88         7.6000    4.6070   -1.8460 h1        1 MOL      0.125112
    182 H89         4.9920    4.7090   -2.0680 hn        1 MOL      0.154088
    183 Ca1        -0.9010    5.0010   -1.0420 Ca        1 MOL      1.784652
    184 O25        -2.7890    6.8280   -2.3800 oh        1 MOL     -0.859058
    185 H90        -3.5110    7.3270   -2.0060 ho        1 MOL      0.421099
    186 H91        -2.4440    7.3900   -3.0880 ho        1 MOL      0.421099
    187 O26        -0.5200    7.3750    0.3910 oh        1 MOL     -0.859058
    188 H92         0.2080    6.8460    0.7080 ho        1 MOL      0.421099
    189 H93        -0.1990    8.2810    0.4490 ho        1 MOL      0.421099
    190 O27         0.1770    6.9390   -2.5180 oh        1 MOL     -0.859058
    191 H94         0.6700    6.8720   -3.3300 ho        1 MOL      0.421099
    192 H95        -0.1930    7.8150   -2.5300 ho        1 MOL      0.421099
    193 O28         1.2070    4.0530   -2.2860 oh        1 MOL     -0.859058
    194 H96         1.3070    3.0970   -2.2900 ho        1 MOL      0.421099
    195 H97         1.4840    4.3220   -3.1700 ho        1 MOL      0.421099
    196 O29        -1.6670    4.0850   -3.6030 oh        1 MOL     -0.859058
    197 H98        -1.8970    4.7040   -4.2880 ho        1 MOL      0.421099
    198 H99        -1.3160    3.3240   -4.0720 ho        1 MOL      0.421099
@<TRIPOS>BOND
     1    1    2 1   
     2    1    4 1   
     3    1    5 1   
     4    1    6 1   
     5    2    3 2   
     6    2    7 1   
     7    7    8 1   
     8    7   15 1   
     9    8    9 1   
    10    8   11 1   
    11    8   16 1   
    12    9   10 2   
    13    9   19 1   
    14   11   12 1   
    15   11   17 1   
    16   11   18 1   
    17   12   13 1   
    18   12   14 1   
    19   19   20 1   
    20   19   28 1   
    21   20   21 1   
    22   20   23 1   
    23   20   29 1   
    24   21   22 2   
    25   21   41 1   
    26   23   24 1   
    27   23   30 1   
    28   23   31 1   
    29   24   25 1   
    30   24   32 1   
    31   24   33 1   
    32   25   26 1   
    33   25   34 1   
    34   25   35 1   
    35   26   27 1   
    36   26   36 1   
    37   26   37 1   
    38   27   38 1   
    39   27   39 1   
    40   27   40 1   
    41   41   42 1   
    42   41   49 1   
    43   42   43 1   
    44   42   45 1   
    45   42   50 1   
    46   43   44 2   
    47   43   53 1   
    48   45   46 1   
    49   45   51 1   
    50   45   52 1   
    51   46   47 1   
    52   46   48 1   
    53   53   54 1   
    54   53   57 1   
    55   54   55 1   
    56   54   58 1   
    57   54   59 1   
    58   55   56 2   
    59   55   60 1   
    60   60   61 1   
    61   60   68 1   
    62   61   62 1   
    63   61   64 1   
    64   61   69 1   
    65   62   63 2   
    66   62   72 1   
    67   64   65 1   
    68   64   70 1   
    69   64   71 1   
    70   65   66 1   
    71   65   67 1   
    72   72   73 1   
    73   72   76 1   
    74   73   74 1   
    75   73   77 1   
    76   73   78 1   
    77   74   75 2   
    78   74   79 1   
    79   79   80 1   
    80   79   86 1   
    81   80   81 1   
    82   80   83 1   
    83   80   87 1   
    84   81   82 2   
    85   81   93 1   
    86   83   84 1   
    87   83   85 1   
    88   83   88 1   
    89   84   90 1   
    90   84   91 1   
    91   84   92 1   
    92   85   89 1   
    93   93   94 1   
    94   93  101 1   
    95   94   95 1   
    96   94   97 1   
    97   94  102 1   
    98   95   96 2   
    99   95  112 1   
   100   97   98 1   
   101   97   99 1   
   102   97  103 1   
   103   98  100 1   
   104   98  104 1   
   105   98  105 1   
   106   99  106 1   
   107   99  107 1   
   108   99  108 1   
   109  100  109 1   
   110  100  110 1   
   111  100  111 1   
   112  112  113 1   
   113  112  119 1   
   114  113  114 1   
   115  113  116 1   
   116  113  120 1   
   117  114  115 2   
   118  114  126 1   
   119  116  117 1   
   120  116  118 1   
   121  116  121 1   
   122  117  123 1   
   123  117  124 1   
   124  117  125 1   
   125  118  122 1   
   126  126  127 1   
   127  126  133 1   
   128  127  128 1   
   129  127  130 1   
   130  127  134 1   
   131  128  129 2   
   132  128  140 1   
   133  130  131 1   
   134  130  132 1   
   135  130  135 1   
   136  131  137 1   
   137  131  138 1   
   138  131  139 1   
   139  132  136 1   
   140  140  141 1   
   141  140  149 1   
   142  141  142 1   
   143  141  144 1   
   144  141  150 1   
   145  142  143 2   
   146  142  162 1   
   147  144  145 1   
   148  144  151 1   
   149  144  152 1   
   150  145  146 1   
   151  145  153 1   
   152  145  154 1   
   153  146  147 1   
   154  146  155 1   
   155  146  156 1   
   156  147  148 1   
   157  147  157 1   
   158  147  158 1   
   159  148  159 1   
   160  148  160 1   
   161  148  161 1   
   162  162  163 1   
   163  162  171 1   
   164  163  164 1   
   165  163  166 1   
   166  163  172 1   
   167  164  165 2   
   168  164  177 1   
   169  166  167 1   
   170  166  173 1   
   171  166  174 1   
   172  167  168 1   
   173  167  175 1   
   174  167  176 1   
   175  168  169 1   
   176  168  170 1   
   177  177  178 1   
   178  177  182 1   
   179  178  179 1   
   180  178  180 1   
   181  178  181 1   
   182  184  185 1   
   183  184  186 1   
   184  187  188 1   
   185  187  189 1   
   186  190  191 1   
   187  190  192 1   
   188  193  194 1   
   189  193  195 1   
   190  196  197 1   
   191  196  198 1   
@<TRIPOS>SUBSTRUCTURE
     1 MOL         1 TEMP              0 ****  ****    0 ROOT
