@<TRIPOS>MOLECULE
MOL
  188   182     1     0     0
SMALL
resp


@<TRIPOS>ATOM
      1 C1          4.5520   -0.6370    5.4210 c3        1 MOL     -0.439542
      2 C2          3.7390   -0.6190    4.1170 c         1 MOL      0.639962
      3 O1          2.4870   -0.6570    4.0700 o         1 MOL     -0.599572
      4 H1          5.3950   -1.3210    5.3130 hc        1 MOL      0.121590
      5 H2          4.9230    0.3660    5.6320 hc        1 MOL      0.121590
      6 H3          3.9170   -0.9710    6.2410 hc        1 MOL      0.121590
      7 N1          4.4600   -0.5200    3.0040 n         1 MOL     -0.443487
      8 C3          3.7450   -0.4920    1.6560 c3        1 MOL      0.054870
      9 C4          3.4610   -1.8930    1.0750 c         1 MOL      0.272329
     10 O2          2.4840   -2.1690    0.3480 o         1 MOL     -0.573668
     11 C5          4.4660    0.5460    0.7740 c3        1 MOL     -0.018430
     12 C6          5.9280    0.2720    0.5490 c         1 MOL      0.655371
     13 O3          6.6220    1.2970    0.5310 o         1 MOL     -0.664666
     14 O4          6.3630   -0.8320    0.1670 o         1 MOL     -0.664666
     15 H4          5.4530   -0.3560    3.0160 hn        1 MOL      0.292827
     16 H5          2.7520   -0.0540    1.7940 h1        1 MOL      0.083223
     17 H6          4.3440    1.5060    1.2760 hc        1 MOL     -0.010781
     18 H7          3.9780    0.6340   -0.1980 hc        1 MOL     -0.010781
     19 N2          4.4410   -2.7920    1.2690 n         1 MOL     -0.094995
     20 C7          4.5170   -4.2340    0.9760 c3        1 MOL      0.042881
     21 C8          4.4930   -4.6780   -0.4990 c         1 MOL      0.381774
     22 O5          4.4980   -5.8520   -0.7600 o         1 MOL     -0.524190
     23 C9          5.7930   -4.8850    1.6850 c3        1 MOL     -0.133651
     24 C10         5.8650   -4.3630    3.0950 c3        1 MOL      0.189230
     25 C11         6.9430   -5.1260    3.8990 c3        1 MOL     -0.148102
     26 C12         6.4590   -5.5780    5.2600 c3        1 MOL      0.204050
     27 N3          7.4790   -6.1600    6.1350 n4        1 MOL     -0.397313
     28 H8          5.2180   -2.4030    1.7720 hn        1 MOL      0.106035
     29 H9          3.6450   -4.7840    1.3260 h1        1 MOL      0.070938
     30 H10         6.6550   -4.5920    1.0720 hc        1 MOL      0.081408
     31 H11         5.6220   -5.9570    1.5860 hc        1 MOL      0.081408
     32 H12         4.9100   -4.5250    3.5890 hc        1 MOL     -0.035623
     33 H13         6.1390   -3.3040    3.2020 hc        1 MOL     -0.035623
     34 H14         7.7250   -4.4160    4.1700 hc        1 MOL      0.048041
     35 H15         7.3090   -5.9270    3.2640 hc        1 MOL      0.048041
     36 H16         5.6590   -6.2740    5.0380 hx        1 MOL      0.030332
     37 H17         6.0470   -4.7570    5.8450 hx        1 MOL      0.030332
     38 H18         8.2880   -5.5570    6.2190 hn        1 MOL      0.330177
     39 H19         7.0870   -6.4090    7.0230 hn        1 MOL      0.330177
     40 H20         7.8740   -7.0340    5.8090 hn        1 MOL      0.330177
     41 N4          4.3690   -3.7060   -1.3880 n         1 MOL     -0.121300
     42 C13         4.2770   -3.8160   -2.8410 c3        1 MOL      0.010227
     43 C14         4.8110   -2.6110   -3.6400 c         1 MOL      0.458114
     44 O6          5.2270   -2.6560   -4.8240 o         1 MOL     -0.506712
     45 C15         2.8220   -4.3280   -3.1410 c3        1 MOL     -0.348376
     46 C16         1.8000   -3.3110   -2.5680 c         1 MOL      0.890191
     47 O7          0.7740   -3.6200   -1.9040 o         1 MOL     -0.760632
     48 O8          1.8530   -2.0760   -2.8130 o         1 MOL     -0.760632
     49 H21         4.3070   -2.7810   -0.9790 hn        1 MOL     -0.072635
     50 H22         4.8950   -4.6380   -3.1760 h1        1 MOL      0.113482
     51 H23         2.7320   -5.2960   -2.6590 hc        1 MOL      0.109274
     52 H24         2.6690   -4.3440   -4.2230 hc        1 MOL      0.109274
     53 N5          4.9340   -1.4260   -2.9520 n         1 MOL     -0.432141
     54 C17         5.1770   -0.0520   -3.5320 c3        1 MOL      0.179439
     55 C18         6.6420    0.4370   -3.4300 c         1 MOL      0.384277
     56 O9          7.5590   -0.3840   -3.4080 o         1 MOL     -0.499090
     57 H25         4.5390   -1.4270   -2.0280 hn        1 MOL      0.444871
     58 H26         4.5090    0.6640   -3.0630 h1        1 MOL      0.013804
     59 H27         4.8060   -0.1010   -4.5580 h1        1 MOL      0.013804
     60 N6          7.0420    1.6990   -3.2460 n         1 MOL     -0.338927
     61 C19         6.1320    2.8710   -3.0900 c3        1 MOL      0.203253
     62 C20         6.3410    3.7810   -1.8030 c         1 MOL      0.598590
     63 O10         7.4660    4.1400   -1.6000 o         1 MOL     -0.539681
     64 C21         6.1610    3.7340   -4.3330 c3        1 MOL     -0.590609
     65 C22         5.0540    4.7380   -4.4680 c         1 MOL      0.791214
     66 N7          3.8450    4.3300   -4.6870 n         1 MOL     -0.747058
     67 O11         5.2610    5.9530   -4.3780 o         1 MOL     -0.587891
     68 H28         8.0260    1.8110   -3.0620 hn        1 MOL      0.292429
     69 H29         5.1450    2.4160   -3.0670 h1        1 MOL      0.038431
     70 H30         6.0930    3.0370   -5.1670 hc        1 MOL      0.152438
     71 H31         7.1750    4.1360   -4.3500 hc        1 MOL      0.152438
     72 H32         3.6170    3.3610   -4.8250 hn        1 MOL      0.340739
     73 H33         3.1420    5.0150   -4.9200 hn        1 MOL      0.340739
     74 N8          5.3960    4.0290   -0.9110 n         1 MOL     -0.446005
     75 C23         3.9770    3.5660   -1.0770 c3        1 MOL     -0.069164
     76 C24         3.0520    4.0780    0.0340 c         1 MOL      0.810932
     77 O12         3.4940    4.6480    1.0160 o         1 MOL     -0.548735
     78 H34         5.6720    4.6240   -0.1570 hn        1 MOL      0.302388
     79 H35         3.9390    2.4760   -1.0690 h1        1 MOL      0.008746
     80 H36         3.5260    3.8920   -2.0080 h1        1 MOL      0.008746
     81 N9          1.7690    3.9500   -0.2410 n         1 MOL     -0.798151
     82 C25         0.6710    4.3060    0.6770 c3        1 MOL      0.268167
     83 C26        -0.4900    3.2470    0.6840 c         1 MOL      0.574622
     84 O13        -0.4100    2.2440    0.0560 o         1 MOL     -0.561495
     85 C27         0.1260    5.6820    0.3400 c3        1 MOL      0.014004
     86 C28        -0.5980    6.5710    1.3680 ca        1 MOL     -0.167170
     87 C29        -1.6960    7.3700    0.9690 ca        1 MOL     -0.001115
     88 C30        -0.2770    6.5070    2.7580 ca        1 MOL     -0.001115
     89 C31        -2.5540    7.9650    1.9200 ca        1 MOL     -0.364067
     90 C32        -0.9090    7.3430    3.6870 ca        1 MOL     -0.364067
     91 C33        -2.1070    7.9820    3.2670 ca        1 MOL      0.459091
     92 O14        -2.7660    8.5880    4.3030 oh        1 MOL     -0.538661
     93 H37         1.5030    3.5540   -1.1310 hn        1 MOL      0.362517
     94 H38         1.0910    4.4270    1.6740 h1        1 MOL     -0.006699
     95 H39        -0.5570    5.4980   -0.4860 hc        1 MOL      0.055067
     96 H40         0.8640    6.2950   -0.1740 hc        1 MOL      0.055067
     97 H41        -1.9390    7.3630   -0.0800 ha        1 MOL      0.115556
     98 H42         0.6180    5.9940    3.0810 ha        1 MOL      0.115556
     99 H43        -3.5140    8.4030    1.6760 ha        1 MOL      0.178245
    100 H44        -0.5440    7.4370    4.7000 ha        1 MOL      0.178245
    101 H45        -2.3780    8.4900    5.1690 ho        1 MOL      0.375571
    102 N10        -1.5250    3.5920    1.5050 n         1 MOL     -0.422799
    103 C34        -2.8370    2.8600    1.5270 c3        1 MOL      0.012536
    104 C35        -3.7720    3.2260    0.4040 c         1 MOL      0.730914
    105 O15        -3.6730    4.3660   -0.1470 o         1 MOL     -0.567411
    106 C36        -3.5520    3.0990    2.9480 c3        1 MOL      0.312071
    107 C37        -3.4940    2.0070    4.0320 c3        1 MOL     -0.159550
    108 C38        -3.2840    4.5400    3.4530 c3        1 MOL     -0.201050
    109 C39        -4.4860    2.2750    5.2050 c3        1 MOL     -0.019597
    110 H46        -1.4020    4.3960    2.1040 hn        1 MOL      0.136408
    111 H47        -2.5880    1.8020    1.5890 h1        1 MOL     -0.029678
    112 H48        -4.6090    3.2270    2.7140 hc        1 MOL     -0.030292
    113 H49        -2.4710    1.9980    4.4100 hc        1 MOL      0.024020
    114 H50        -3.7650    1.0540    3.5790 hc        1 MOL      0.024020
    115 H51        -2.2890    4.6000    3.9010 hc        1 MOL      0.045369
    116 H52        -3.3700    5.3230    2.6950 hc        1 MOL      0.045369
    117 H53        -4.0540    4.6360    4.2110 hc        1 MOL      0.045369
    118 H54        -5.4560    2.4490    4.7200 hc        1 MOL      0.016141
    119 H55        -4.5590    1.4880    5.9600 hc        1 MOL      0.016141
    120 H56        -4.2620    3.1940    5.7440 hc        1 MOL      0.016141
    121 N11        -4.7000    2.2840    0.0980 n         1 MOL     -0.567764
    122 C40        -5.6210    2.5180   -1.0640 c3        1 MOL      0.004481
    123 C41        -5.8570    1.1690   -1.7780 c         1 MOL      0.552050
    124 O16        -5.6140    0.0640   -1.2430 o         1 MOL     -0.466593
    125 C42        -6.9420    3.1470   -0.5710 c3        1 MOL     -0.009701
    126 O17        -7.6030    2.2070    0.1920 oh        1 MOL     -0.587003
    127 H57        -4.8420    1.4520    0.6640 hn        1 MOL      0.330953
    128 H58        -5.2170    3.2040   -1.8010 h1        1 MOL      0.086057
    129 H59        -7.5600    3.4990   -1.4000 h1        1 MOL      0.069789
    130 H60        -6.6910    4.0360    0.0140 h1        1 MOL      0.069789
    131 H61        -8.3720    2.6520    0.5710 ho        1 MOL      0.419529
    132 N12        -6.2020    1.3170   -3.0770 n         1 MOL     -0.463326
    133 C43        -6.3550    0.2390   -4.0430 c3        1 MOL      0.189377
    134 C44        -7.0390   -1.0470   -3.4430 c         1 MOL      0.380343
    135 O18        -6.5500   -2.1640   -3.7770 o         1 MOL     -0.432336
    136 C45        -5.0180    0.0630   -4.6950 c3        1 MOL     -0.291970
    137 H62        -6.4120    2.2070   -3.4900 hn        1 MOL      0.287381
    138 H63        -7.0600    0.6720   -4.7480 h1        1 MOL      0.023447
    139 H64        -4.3350    0.9030   -4.6510 hc        1 MOL      0.095445
    140 H65        -4.6260   -0.9220   -4.4470 hc        1 MOL      0.095445
    141 H66        -5.1930   -0.1620   -5.7460 hc        1 MOL      0.095445
    142 N13        -8.0470   -0.9000   -2.5820 n         1 MOL     -0.439612
    143 C46        -8.9080   -1.9270   -1.9420 c3        1 MOL      0.448181
    144 C47        -8.2100   -3.1690   -1.4060 c         1 MOL      0.169496
    145 O19        -8.6220   -4.2800   -1.6540 o         1 MOL     -0.457164
    146 C48       -10.0550   -2.2780   -2.9320 c3        1 MOL     -0.396928
    147 H67        -8.4620    0.0180   -2.5330 hn        1 MOL      0.232008
    148 H68        -9.3280   -1.4280   -1.0660 h1        1 MOL     -0.043271
    149 H69       -10.5360   -1.3750   -3.3060 hc        1 MOL      0.103748
    150 H70        -9.6300   -2.6820   -3.8580 hc        1 MOL      0.103748
    151 H71       -10.8160   -2.9080   -2.4640 hc        1 MOL      0.103748
    152 N14        -7.1930   -3.0110   -0.5940 n         1 MOL     -0.076105
    153 C49        -6.5630   -4.2420    0.0810 c3        1 MOL     -0.226723
    154 C50        -7.2140   -4.5680    1.4860 c         1 MOL      0.610873
    155 O20        -7.3340   -5.6710    1.8540 o         1 MOL     -0.510824
    156 C51        -5.0980   -3.8710    0.2860 c3        1 MOL      0.227730
    157 C52        -4.4470   -3.6090   -1.1520 c3        1 MOL     -0.079861
    158 C53        -2.9270   -3.4020   -1.0210 c         1 MOL      0.799023
    159 O21        -2.2740   -4.1940   -0.3390 o         1 MOL     -0.809341
    160 O22        -2.3670   -2.3750   -1.4950 o         1 MOL     -0.809341
    161 H72        -7.1180   -2.1030   -0.1780 hn        1 MOL      0.161618
    162 H73        -6.6590   -5.0560   -0.6400 h1        1 MOL      0.170673
    163 H74        -4.5920   -4.6630    0.8360 hc        1 MOL     -0.069144
    164 H75        -5.1040   -2.9560    0.8930 hc        1 MOL     -0.069144
    165 H76        -4.9160   -2.7760   -1.6820 hc        1 MOL      0.024117
    166 H77        -4.5130   -4.5080   -1.7490 hc        1 MOL      0.024117
    167 N15        -7.8350   -3.5610    2.1530 n         1 MOL     -0.388642
    168 C54        -8.3570   -3.9340    3.4480 c3        1 MOL     -0.278532
    169 H78        -7.5610   -3.8790    4.1910 h1        1 MOL      0.118736
    170 H79        -9.1600   -3.2510    3.7270 h1        1 MOL      0.118736
    171 H80        -8.7430   -4.9520    3.4050 h1        1 MOL      0.118736
    172 H81        -7.7470   -2.5790    1.9270 hn        1 MOL      0.274691
    173 Ca1        -0.1970   -2.4040    0.0910 Ca        1 MOL      1.766363
    174 O23        -2.3550   -1.7450    1.7870 oh        1 MOL     -0.784912
    175 H82        -2.4860   -1.8230    2.7380 ho        1 MOL      0.390721
    176 H83        -3.1450   -1.3150    1.4750 ho        1 MOL      0.390721
    177 O24         0.6160   -2.4880    2.7870 oh        1 MOL     -0.784912
    178 H84         1.2630   -2.8440    3.3990 ho        1 MOL      0.390721
    179 H85         0.4810   -1.5860    3.0900 ho        1 MOL      0.390721
    180 O25         0.2620   -4.9490    0.9660 oh        1 MOL     -0.784912
    181 H86         0.9440   -5.4780    1.3790 ho        1 MOL      0.390721
    182 H87         0.0110   -5.4350    0.1810 ho        1 MOL      0.390721
    183 O26         0.0280    0.1020    1.5550 oh        1 MOL     -0.784912
    184 H88         0.1730    0.4190    2.4450 ho        1 MOL      0.390721
    185 H89         0.0700    0.8800    1.0110 ho        1 MOL      0.390721
    186 O27         0.6000   -0.4730   -1.2330 oh        1 MOL     -0.784912
    187 H90         1.2230   -0.8720   -1.8440 ho        1 MOL      0.390721
    188 H91         0.6680    0.4720   -1.3950 ho        1 MOL      0.390721
@<TRIPOS>BOND
     1    1    2 1   
     2    1    4 1   
     3    1    5 1   
     4    1    6 1   
     5    2    3 2   
     6    2    7 1   
     7    7    8 1   
     8    7   15 1   
     9    8    9 1   
    10    8   11 1   
    11    8   16 1   
    12    9   10 2   
    13    9   19 1   
    14   11   12 1   
    15   11   17 1   
    16   11   18 1   
    17   12   13 1   
    18   12   14 1   
    19   19   20 1   
    20   19   28 1   
    21   20   21 1   
    22   20   23 1   
    23   20   29 1   
    24   21   22 2   
    25   21   41 1   
    26   23   24 1   
    27   23   30 1   
    28   23   31 1   
    29   24   25 1   
    30   24   32 1   
    31   24   33 1   
    32   25   26 1   
    33   25   34 1   
    34   25   35 1   
    35   26   27 1   
    36   26   36 1   
    37   26   37 1   
    38   27   38 1   
    39   27   39 1   
    40   27   40 1   
    41   41   42 1   
    42   41   49 1   
    43   42   43 1   
    44   42   45 1   
    45   42   50 1   
    46   43   44 2   
    47   43   53 1   
    48   45   46 1   
    49   45   51 1   
    50   45   52 1   
    51   46   47 1   
    52   46   48 1   
    53   53   54 1   
    54   53   57 1   
    55   54   55 1   
    56   54   58 1   
    57   54   59 1   
    58   55   56 2   
    59   55   60 1   
    60   60   61 1   
    61   60   68 1   
    62   61   62 1   
    63   61   64 1   
    64   61   69 1   
    65   62   63 2   
    66   62   74 1   
    67   64   65 1   
    68   64   70 1   
    69   64   71 1   
    70   65   66 1   
    71   65   67 2   
    72   66   72 1   
    73   66   73 1   
    74   74   75 1   
    75   74   78 1   
    76   75   76 1   
    77   75   79 1   
    78   75   80 1   
    79   76   77 2   
    80   76   81 1   
    81   81   82 1   
    82   81   93 1   
    83   82   83 1   
    84   82   85 1   
    85   82   94 1   
    86   83   84 2   
    87   83  102 1   
    88   85   86 1   
    89   85   95 1   
    90   85   96 1   
    91   86   87 ar  
    92   86   88 ar  
    93   87   89 ar  
    94   87   97 1   
    95   88   90 ar  
    96   88   98 1   
    97   89   91 ar  
    98   89   99 1   
    99   90   91 ar  
   100   90  100 1   
   101   91   92 1   
   102   92  101 1   
   103  102  103 1   
   104  102  110 1   
   105  103  104 1   
   106  103  106 1   
   107  103  111 1   
   108  104  105 2   
   109  104  121 1   
   110  106  107 1   
   111  106  108 1   
   112  106  112 1   
   113  107  109 1   
   114  107  113 1   
   115  107  114 1   
   116  108  115 1   
   117  108  116 1   
   118  108  117 1   
   119  109  118 1   
   120  109  119 1   
   121  109  120 1   
   122  121  122 1   
   123  121  127 1   
   124  122  123 1   
   125  122  125 1   
   126  122  128 1   
   127  123  124 2   
   128  123  132 1   
   129  125  126 1   
   130  125  129 1   
   131  125  130 1   
   132  126  131 1   
   133  132  133 1   
   134  132  137 1   
   135  133  134 1   
   136  133  136 1   
   137  133  138 1   
   138  134  135 2   
   139  134  142 1   
   140  136  139 1   
   141  136  140 1   
   142  136  141 1   
   143  142  143 1   
   144  142  147 1   
   145  143  144 1   
   146  143  146 1   
   147  143  148 1   
   148  144  145 2   
   149  144  152 1   
   150  146  149 1   
   151  146  150 1   
   152  146  151 1   
   153  152  153 1   
   154  152  161 1   
   155  153  154 1   
   156  153  156 1   
   157  153  162 1   
   158  154  155 2   
   159  154  167 1   
   160  156  157 1   
   161  156  163 1   
   162  156  164 1   
   163  157  158 1   
   164  157  165 1   
   165  157  166 1   
   166  158  159 1   
   167  158  160 1   
   168  167  168 1   
   169  167  172 1   
   170  168  169 1   
   171  168  170 1   
   172  168  171 1   
   173  174  175 1   
   174  174  176 1   
   175  177  178 1   
   176  177  179 1   
   177  180  181 1   
   178  180  182 1   
   179  183  184 1   
   180  183  185 1   
   181  186  187 1   
   182  186  188 1   
@<TRIPOS>SUBSTRUCTURE
     1 MOL         1 TEMP              0 ****  ****    0 ROOT
