@<TRIPOS>MOLECULE
MOL
  185   180     1     0     0
SMALL
resp


@<TRIPOS>ATOM
      1 C1         -5.3230    2.0140   -3.1660 c3        1 MOL     -0.457656
      2 C2         -6.3770    1.7790   -2.0100 c         1 MOL      0.556972
      3 O1         -5.9760    1.5670   -0.8550 o         1 MOL     -0.510183
      4 H1         -4.3180    2.0250   -2.7440 hc        1 MOL      0.124510
      5 H2         -5.4010    1.2100   -3.8980 hc        1 MOL      0.124510
      6 H3         -5.5230    2.9690   -3.6530 hc        1 MOL      0.124510
      7 N1         -7.6920    1.8210   -2.2970 n         1 MOL     -0.393721
      8 C3         -8.8190    1.6660   -1.3060 c3        1 MOL     -0.029607
      9 C4         -8.7410    0.4010   -0.4580 c         1 MOL      0.377115
     10 O2         -9.2780    0.3130    0.6420 o         1 MOL     -0.471751
     11 C5         -8.8360    2.8860   -0.4540 c3        1 MOL     -0.250175
     12 C6        -10.2440    3.2590    0.1270 c         1 MOL      0.699216
     13 O3        -10.2630    3.6630    1.2930 o         1 MOL     -0.648604
     14 O4        -11.2330    3.4110   -0.6640 o         1 MOL     -0.648604
     15 H4         -8.0130    1.9580   -3.2450 hn        1 MOL      0.272735
     16 H5         -9.7180    1.5770   -1.9210 h1        1 MOL      0.044033
     17 H6         -8.5170    3.7120   -1.0830 hc        1 MOL      0.113995
     18 H7         -8.0950    2.7960    0.3380 hc        1 MOL      0.113995
     19 N2         -8.1840   -0.6370   -1.0430 n         1 MOL     -0.123848
     20 C7         -8.1110   -2.0040   -0.4470 c3        1 MOL     -0.060367
     21 C8         -6.6690   -2.4540   -0.1640 c         1 MOL      0.647003
     22 O5         -6.4260   -3.6050    0.1670 o         1 MOL     -0.595487
     23 C9         -8.8050   -3.0390   -1.4260 c3        1 MOL      0.036404
     24 C10       -10.3180   -2.8370   -1.5970 c3        1 MOL      0.003734
     25 C11       -10.9710   -3.7270   -2.6310 c3        1 MOL     -0.124747
     26 C12       -12.3430   -3.1410   -2.9780 c3        1 MOL      0.038040
     27 N3        -12.8770   -3.3680   -4.3580 n4        1 MOL     -0.245794
     28 H8         -7.8340   -0.4620   -1.9770 hn        1 MOL      0.118868
     29 H9         -8.6710   -2.0190    0.4900 h1        1 MOL      0.125829
     30 H10        -8.5960   -4.0730   -1.1570 hc        1 MOL     -0.008376
     31 H11        -8.3720   -2.9900   -2.4130 hc        1 MOL     -0.008376
     32 H12       -10.4570   -1.8010   -1.9000 hc        1 MOL      0.027967
     33 H13       -10.8890   -3.0410   -0.6920 hc        1 MOL      0.027967
     34 H14       -11.1760   -4.7150   -2.1950 hc        1 MOL      0.065244
     35 H15       -10.3740   -3.8720   -3.5270 hc        1 MOL      0.065244
     36 H16       -12.1970   -2.0740   -2.8270 hx        1 MOL      0.082985
     37 H17       -13.1090   -3.4190   -2.2600 hx        1 MOL      0.082985
     38 H18       -12.9380   -4.3480   -4.5820 hn        1 MOL      0.244898
     39 H19       -13.7780   -2.9330   -4.4980 hn        1 MOL      0.244898
     40 H20       -12.2970   -2.9160   -5.0490 hn        1 MOL      0.244898
     41 N4         -5.7290   -1.5630   -0.2300 n         1 MOL     -0.583838
     42 C13        -4.4080   -1.9720    0.1550 c3        1 MOL      0.219891
     43 C14        -4.3050   -2.3190    1.6350 c         1 MOL      0.533666
     44 O6         -4.9670   -1.6790    2.4600 o         1 MOL     -0.483132
     45 C15        -3.3480   -0.8700   -0.2310 c3        1 MOL     -0.473562
     46 C16        -1.9050   -1.3240   -0.0780 c         1 MOL      0.888255
     47 O7         -1.4060   -1.2930    1.0570 o         1 MOL     -0.784787
     48 O8         -1.3070   -1.9430   -0.9580 o         1 MOL     -0.784787
     49 H21        -5.9190   -0.5960   -0.4380 hn        1 MOL      0.339198
     50 H22        -4.1320   -2.8740   -0.3830 h1        1 MOL      0.038979
     51 H23        -3.5880    0.0190    0.3590 hc        1 MOL      0.126312
     52 H24        -3.5370   -0.5410   -1.2570 hc        1 MOL      0.126312
     53 N5         -3.5240   -3.2930    2.1310 n         1 MOL     -0.469439
     54 C17        -3.3700   -3.5580    3.5760 c3        1 MOL      0.176955
     55 C18        -2.8540   -2.3930    4.5010 c         1 MOL      0.387731
     56 O9         -3.3250   -2.2960    5.6780 o         1 MOL     -0.513968
     57 H25        -2.8750   -3.7740    1.5280 hn        1 MOL      0.211641
     58 H26        -2.6820   -4.3880    3.7360 h1        1 MOL      0.013739
     59 H27        -4.2490   -3.9720    4.0730 h1        1 MOL      0.013739
     60 N6         -1.8510   -1.5960    4.0280 n         1 MOL     -0.300358
     61 C19        -1.1360   -0.5820    4.7570 c3        1 MOL      0.114790
     62 C20        -1.1910    0.7720    4.1620 c         1 MOL      0.487003
     63 O10        -0.8820    1.8050    4.7480 o         1 MOL     -0.531304
     64 C21         0.3420   -1.1640    4.9120 c3        1 MOL     -0.347550
     65 C22         1.2050   -1.0000    3.6390 c         1 MOL      0.736991
     66 N7          2.2780   -0.2630    3.6320 n         1 MOL     -0.671226
     67 O11         1.0720   -1.6820    2.6590 o         1 MOL     -0.668128
     68 H28        -1.6200   -1.7670    3.0520 hn        1 MOL      0.214638
     69 H29        -1.7030   -0.5210    5.6950 h1        1 MOL      0.097466
     70 H30         0.3380   -2.2220    5.1630 hc        1 MOL      0.102659
     71 H31         0.7860   -0.6180    5.7450 hc        1 MOL      0.102659
     72 H32         2.6760    0.0670    4.5000 hn        1 MOL      0.329130
     73 H33         2.8840   -0.3550    2.8380 hn        1 MOL      0.329130
     74 N8         -1.5550    0.9200    2.8500 n         1 MOL     -0.334792
     75 C23        -1.6730    2.1690    2.1790 c3        1 MOL     -0.082251
     76 C24        -0.3700    2.7500    1.6570 c         1 MOL      0.672388
     77 O12         0.6660    2.7570    2.3840 o         1 MOL     -0.556175
     78 H34        -1.5670    0.1230    2.2400 hn        1 MOL      0.243250
     79 H35        -2.0250    2.9570    2.8490 h1        1 MOL      0.082665
     80 H36        -2.4380    2.0220    1.4130 h1        1 MOL      0.082665
     81 N9         -0.3760    3.3660    0.5590 n         1 MOL     -0.556889
     82 C25         0.9310    3.8540   -0.0840 c3        1 MOL      0.050378
     83 C26         1.7980    2.6970   -0.6450 c         1 MOL      0.682859
     84 O13         1.4320    1.5490   -0.7750 o         1 MOL     -0.537047
     85 C27         0.5460    4.6940   -1.3320 c3        1 MOL     -0.062818
     86 C28        -0.3970    5.8360   -0.9970 ca        1 MOL     -0.043562
     87 C29        -1.7040    5.8300   -1.4850 ca        1 MOL     -0.095929
     88 C30         0.0450    6.8030   -0.0900 ca        1 MOL     -0.095929
     89 C31        -2.5540    6.9080   -1.1730 ca        1 MOL     -0.270463
     90 C32        -0.7710    7.8950    0.1240 ca        1 MOL     -0.270463
     91 C33        -2.0800    7.9560   -0.3530 ca        1 MOL      0.345916
     92 O14        -2.9220    8.9900   -0.1210 oh        1 MOL     -0.458919
     93 H37        -1.2240    3.5900    0.0500 hn        1 MOL      0.318040
     94 H38         1.5460    4.3960    0.6330 h1        1 MOL      0.072267
     95 H39         0.0460    4.0420   -2.0600 hc        1 MOL      0.045460
     96 H40         1.4620    5.0720   -1.7760 hc        1 MOL      0.045460
     97 H41        -2.0620    5.0740   -2.1620 ha        1 MOL      0.121456
     98 H42         1.0410    6.7440    0.3120 ha        1 MOL      0.121456
     99 H43        -3.5350    7.0530   -1.6230 ha        1 MOL      0.149358
    100 H44        -0.4290    8.6330    0.8410 ha        1 MOL      0.149358
    101 H45        -2.5440    9.6850    0.4370 ho        1 MOL      0.358556
    102 N10         3.0360    3.0830   -0.9130 n         1 MOL     -0.774485
    103 C34         4.1350    2.2950   -1.5620 c3        1 MOL      0.214920
    104 C35         5.2190    1.9740   -0.5540 c         1 MOL      0.788597
    105 O15         5.6430    0.8300   -0.5200 o         1 MOL     -0.713893
    106 C36         4.6720    3.0810   -2.7560 c3        1 MOL      0.020328
    107 C37         3.7010    3.6540   -3.7330 c3        1 MOL      0.282448
    108 C38         5.7720    2.2900   -3.5270 c3        1 MOL     -0.381913
    109 C39         2.8140    2.6080   -4.3860 c3        1 MOL     -0.316883
    110 H46         3.2690    4.0400   -0.6850 hn        1 MOL      0.315107
    111 H47         3.6420    1.3770   -1.9020 h1        1 MOL      0.007240
    112 H48         5.1920    3.9040   -2.2750 hc        1 MOL     -0.051948
    113 H49         4.3710    4.0960   -4.4780 hc        1 MOL     -0.047393
    114 H50         3.1210    4.5240   -3.4220 hc        1 MOL     -0.047393
    115 H51         5.4580    1.3500   -3.9720 hc        1 MOL      0.105522
    116 H52         6.1120    2.8580   -4.3870 hc        1 MOL      0.105522
    117 H53         6.5290    1.9680   -2.8060 hc        1 MOL      0.105522
    118 H54         3.3900    1.8750   -4.9580 hc        1 MOL      0.081285
    119 H55         2.2880    2.0630   -3.6110 hc        1 MOL      0.081285
    120 H56         2.2120    3.1710   -5.0920 hc        1 MOL      0.081285
    121 N11         5.6030    2.8190    0.3270 n         1 MOL     -0.343477
    122 C40         6.3680    2.4720    1.5100 c3        1 MOL      0.033239
    123 C41         7.8600    2.3090    1.1480 c         1 MOL      0.219733
    124 O16         8.7340    2.0420    2.0090 o         1 MOL     -0.466129
    125 C42         6.3640    3.6820    2.5230 c3        1 MOL      0.217351
    126 O17         5.0850    4.3840    2.4860 oh        1 MOL     -0.609692
    127 H57         5.3040    3.7820    0.3610 hn        1 MOL      0.209880
    128 H58         6.0150    1.5300    1.9250 h1        1 MOL      0.152778
    129 H59         7.1210    4.4000    2.2200 h1        1 MOL      0.042929
    130 H60         6.6410    3.2610    3.4850 h1        1 MOL      0.042929
    131 H61         5.1750    5.3490    2.4710 ho        1 MOL      0.400686
    132 N12         8.2030    2.4470   -0.1370 n         1 MOL     -0.177677
    133 C43         9.4160    1.8900   -0.7560 c3        1 MOL      0.221129
    134 C44         9.5170    0.3780   -0.5100 c         1 MOL      0.594251
    135 O18        10.6260   -0.1450   -0.5250 o         1 MOL     -0.537169
    136 C45        10.6800    2.6600   -0.4060 c3        1 MOL     -0.489971
    137 H62         7.5860    2.9010   -0.7950 hn        1 MOL      0.136323
    138 H63         9.3360    1.9570   -1.8350 h1        1 MOL      0.031106
    139 H64        11.4400    2.2810   -1.0900 hc        1 MOL      0.137803
    140 H65        10.4960    3.7130   -0.5520 hc        1 MOL      0.137803
    141 H66        10.9940    2.3970    0.6010 hc        1 MOL      0.137803
    142 N13         8.3930   -0.3570   -0.3270 n         1 MOL     -0.914108
    143 C46         8.3910   -1.7860   -0.0480 c3        1 MOL      0.828246
    144 C47         7.3910   -2.5600   -0.9390 c         1 MOL      0.319543
    145 O19         6.5690   -2.1050   -1.7240 o         1 MOL     -0.408029
    146 C48         8.0950   -1.9370    1.4210 c3        1 MOL     -0.247714
    147 H67         7.4890    0.0910   -0.3860 hn        1 MOL      0.396554
    148 H68         9.3870   -2.2040   -0.2020 h1        1 MOL     -0.109998
    149 H69         7.0150   -1.8480    1.5350 hc        1 MOL      0.051752
    150 H70         8.4170   -2.9330    1.7200 hc        1 MOL      0.051752
    151 H71         8.5180   -1.1710    2.0640 hc        1 MOL      0.051752
    152 N14         7.5260   -3.8900   -0.8890 n         1 MOL     -0.619948
    153 C49         6.6380   -4.8470   -1.5610 c3        1 MOL      0.027265
    154 C50         6.6170   -4.6980   -3.1570 c         1 MOL      0.397827
    155 O20         5.6620   -4.9350   -3.9290 o         1 MOL     -0.490731
    156 C51         5.2850   -4.6690   -0.9170 c3        1 MOL      0.253130
    157 C52         4.9990   -4.9280    0.5720 c3        1 MOL     -0.214740
    158 C53         3.5020   -4.6800    0.8640 c         1 MOL      0.769812
    159 O21         3.0130   -3.5420    0.9650 o         1 MOL     -0.749024
    160 O22         2.7730   -5.6510    0.9470 o         1 MOL     -0.749024
    161 H72         8.1330   -4.2700   -0.1810 hn        1 MOL      0.336678
    162 H73         6.9770   -5.8600   -1.3420 h1        1 MOL      0.064362
    163 H74         4.6080   -5.2630   -1.5290 hc        1 MOL     -0.058106
    164 H75         4.9350   -3.6870   -1.2080 hc        1 MOL     -0.058106
    165 H76         5.5840   -4.1700    1.1080 hc        1 MOL      0.015356
    166 H77         5.3900   -5.8740    0.9470 hc        1 MOL      0.015356
    167 N15         7.6780   -4.1000   -3.7380 n         1 MOL     -0.279836
    168 C54         7.7050   -3.5900   -5.1060 c3        1 MOL     -0.136929
    169 H78         8.7340   -3.3650   -5.3890 h1        1 MOL      0.090445
    170 H79         7.2980   -4.3410   -5.7830 h1        1 MOL      0.090445
    171 H80         7.1060   -2.6810   -5.1670 h1        1 MOL      0.090445
    172 H81         8.3360   -3.8070   -3.0300 hn        1 MOL      0.220718
    173 Ca1         0.5160   -3.0580    0.4550 Ca        1 MOL      1.793552
    174 O23         1.3070   -4.2810   -1.8390 oh        1 MOL     -0.858531
    175 H82         1.0310   -5.1400   -2.1700 ho        1 MOL      0.434036
    176 H83         2.0420   -4.0360   -2.3990 ho        1 MOL      0.434036
    177 O24        -0.2650   -4.6660    2.5850 oh        1 MOL     -0.858531
    178 H84        -0.1310   -4.6650    3.5290 ho        1 MOL      0.434036
    179 H85        -0.8950   -5.3780    2.4270 ho        1 MOL      0.434036
    180 O25        -1.3630   -5.0330   -0.0860 oh        1 MOL     -0.858531
    181 H86        -2.0450   -5.0090   -0.7630 ho        1 MOL      0.434036
    182 H87        -1.4660   -5.8880    0.3300 ho        1 MOL      0.434036
    183 O26         1.7920   -1.1970   -0.9300 oh        1 MOL     -0.858531
    184 H88         1.8100   -0.2350   -0.8700 ho        1 MOL      0.434036
    185 H89         2.4600   -1.4090   -1.5700 ho        1 MOL      0.434036
@<TRIPOS>BOND
     1    1    2 1   
     2    1    4 1   
     3    1    5 1   
     4    1    6 1   
     5    2    3 2   
     6    2    7 1   
     7    7    8 1   
     8    7   15 1   
     9    8    9 1   
    10    8   11 1   
    11    8   16 1   
    12    9   10 2   
    13    9   19 1   
    14   11   12 1   
    15   11   17 1   
    16   11   18 1   
    17   12   13 1   
    18   12   14 1   
    19   19   20 1   
    20   19   28 1   
    21   20   21 1   
    22   20   23 1   
    23   20   29 1   
    24   21   22 2   
    25   21   41 1   
    26   23   24 1   
    27   23   30 1   
    28   23   31 1   
    29   24   25 1   
    30   24   32 1   
    31   24   33 1   
    32   25   26 1   
    33   25   34 1   
    34   25   35 1   
    35   26   27 1   
    36   26   36 1   
    37   26   37 1   
    38   27   38 1   
    39   27   39 1   
    40   27   40 1   
    41   41   42 1   
    42   41   49 1   
    43   42   43 1   
    44   42   45 1   
    45   42   50 1   
    46   43   44 2   
    47   43   53 1   
    48   45   46 1   
    49   45   51 1   
    50   45   52 1   
    51   46   47 1   
    52   46   48 1   
    53   53   54 1   
    54   53   57 1   
    55   54   55 1   
    56   54   58 1   
    57   54   59 1   
    58   55   56 2   
    59   55   60 1   
    60   60   61 1   
    61   60   68 1   
    62   61   62 1   
    63   61   64 1   
    64   61   69 1   
    65   62   63 2   
    66   62   74 1   
    67   64   65 1   
    68   64   70 1   
    69   64   71 1   
    70   65   66 1   
    71   65   67 2   
    72   66   72 1   
    73   66   73 1   
    74   74   75 1   
    75   74   78 1   
    76   75   76 1   
    77   75   79 1   
    78   75   80 1   
    79   76   77 2   
    80   76   81 1   
    81   81   82 1   
    82   81   93 1   
    83   82   83 1   
    84   82   85 1   
    85   82   94 1   
    86   83   84 2   
    87   83  102 1   
    88   85   86 1   
    89   85   95 1   
    90   85   96 1   
    91   86   87 ar  
    92   86   88 ar  
    93   87   89 ar  
    94   87   97 1   
    95   88   90 ar  
    96   88   98 1   
    97   89   91 ar  
    98   89   99 1   
    99   90   91 ar  
   100   90  100 1   
   101   91   92 1   
   102   92  101 1   
   103  102  103 1   
   104  102  110 1   
   105  103  104 1   
   106  103  106 1   
   107  103  111 1   
   108  104  105 2   
   109  104  121 1   
   110  106  107 1   
   111  106  108 1   
   112  106  112 1   
   113  107  109 1   
   114  107  113 1   
   115  107  114 1   
   116  108  115 1   
   117  108  116 1   
   118  108  117 1   
   119  109  118 1   
   120  109  119 1   
   121  109  120 1   
   122  121  122 1   
   123  121  127 1   
   124  122  123 1   
   125  122  125 1   
   126  122  128 1   
   127  123  124 2   
   128  123  132 1   
   129  125  126 1   
   130  125  129 1   
   131  125  130 1   
   132  126  131 1   
   133  132  133 1   
   134  132  137 1   
   135  133  134 1   
   136  133  136 1   
   137  133  138 1   
   138  134  135 2   
   139  134  142 1   
   140  136  139 1   
   141  136  140 1   
   142  136  141 1   
   143  142  143 1   
   144  142  147 1   
   145  143  144 1   
   146  143  146 1   
   147  143  148 1   
   148  144  145 2   
   149  144  152 1   
   150  146  149 1   
   151  146  150 1   
   152  146  151 1   
   153  152  153 1   
   154  152  161 1   
   155  153  154 1   
   156  153  156 1   
   157  153  162 1   
   158  154  155 2   
   159  154  167 1   
   160  156  157 1   
   161  156  163 1   
   162  156  164 1   
   163  157  158 1   
   164  157  165 1   
   165  157  166 1   
   166  158  159 1   
   167  158  160 1   
   168  167  168 1   
   169  167  172 1   
   170  168  169 1   
   171  168  170 1   
   172  168  171 1   
   173  174  175 1   
   174  174  176 1   
   175  177  178 1   
   176  177  179 1   
   177  180  181 1   
   178  180  182 1   
   179  183  184 1   
   180  183  185 1   
@<TRIPOS>SUBSTRUCTURE
     1 MOL         1 TEMP              0 ****  ****    0 ROOT
