@<TRIPOS>MOLECULE
MOL
  192   187     1     0     0
SMALL
resp


@<TRIPOS>ATOM
      1 C1         -3.4070   -1.9310    2.4150 c3        1 MOL     -0.298895
      2 C2         -2.4890   -2.7630    1.4920 c         1 MOL      0.725830
      3 O1         -1.5880   -2.1620    0.9410 o         1 MOL     -0.502381
      4 H1         -3.1470   -0.8770    2.3310 hc        1 MOL      0.054684
      5 H2         -4.4470   -2.0740    2.1180 hc        1 MOL      0.054684
      6 H3         -3.2750   -2.2560    3.4480 hc        1 MOL      0.054684
      7 N1         -2.7300   -4.0550    1.2130 n         1 MOL     -0.519009
      8 C3         -1.9370   -5.0930    0.4920 c3        1 MOL      0.150482
      9 C4         -0.4200   -5.0780    0.7100 c         1 MOL      0.549150
     10 O2          0.4250   -5.2590   -0.1990 o         1 MOL     -0.514615
     11 C5         -2.3180   -5.0400   -0.9700 c3        1 MOL     -0.369916
     12 C6         -3.8250   -5.1460   -1.2150 c         1 MOL      1.029807
     13 O3         -4.4520   -6.0460   -0.6500 o         1 MOL     -0.850205
     14 O4         -4.4550   -4.3260   -1.9530 o         1 MOL     -0.850205
     15 H4         -3.5620   -4.4510    1.6310 hn        1 MOL      0.235339
     16 H5         -2.2860   -6.0480    0.8790 h1        1 MOL      0.047783
     17 H6         -1.7680   -5.7330   -1.6180 hc        1 MOL      0.092880
     18 H7         -1.9860   -4.0200   -1.1680 hc        1 MOL      0.092880
     19 N2         -0.0050   -4.7010    1.8970 n         1 MOL     -0.416344
     20 C7          1.3310   -4.3820    2.4010 c3        1 MOL     -0.316513
     21 C8          2.3100   -5.6050    2.0780 c         1 MOL      0.522646
     22 O5          2.0170   -6.7610    2.1990 o         1 MOL     -0.554444
     23 C9          1.4040   -4.1220    3.8860 c3        1 MOL      0.218041
     24 C10         0.9840   -5.3460    4.7360 c3        1 MOL      0.030623
     25 C11         0.6370   -2.9000    4.2730 c3        1 MOL     -0.079934
     26 C12         0.8490   -5.1050    6.2630 c3        1 MOL     -0.142403
     27 H8         -0.7130   -4.6210    2.6080 hn        1 MOL      0.238881
     28 H9          1.7980   -3.5750    1.8390 h1        1 MOL      0.267387
     29 H10         2.4530   -4.0030    4.1600 hc        1 MOL      0.028294
     30 H11         1.8010   -6.0690    4.7250 hc        1 MOL      0.000906
     31 H12         0.0150   -5.6390    4.3310 hc        1 MOL      0.000906
     32 H13         0.9640   -2.3770    5.1730 hc        1 MOL      0.002445
     33 H14         0.7190   -2.1780    3.4540 hc        1 MOL      0.002445
     34 H15        -0.4460   -2.9980    4.2650 hc        1 MOL      0.002445
     35 H16         0.2870   -4.1930    6.4720 hc        1 MOL      0.019092
     36 H17         0.3920   -5.9760    6.7400 hc        1 MOL      0.019092
     37 H18         1.8460   -4.9480    6.6780 hc        1 MOL      0.019092
     38 N3          3.5300   -5.2610    1.5890 n         1 MOL     -0.394467
     39 C13         4.1140   -3.9720    1.3080 c3        1 MOL      0.076304
     40 C14         3.5700   -3.2620    0.0170 c         1 MOL      0.124486
     41 O6          3.4440   -2.0290   -0.0650 o         1 MOL     -0.490778
     42 C15         5.6270   -4.1380    1.1360 c3        1 MOL     -0.346014
     43 C16         6.1730   -5.0620    0.0080 c         1 MOL      0.659776
     44 O7          7.3700   -4.9140   -0.3260 o         1 MOL     -0.662993
     45 O8          5.3990   -5.8920   -0.5680 o         1 MOL     -0.662993
     46 H19         4.0720   -6.0600    1.3150 hn        1 MOL      0.258508
     47 H20         3.9730   -3.4140    2.2360 h1        1 MOL      0.059216
     48 H21         6.1710   -4.3450    2.0660 hc        1 MOL      0.090105
     49 H22         5.9900   -3.1110    1.0860 hc        1 MOL      0.090105
     50 N4          3.2160   -4.0800   -0.9490 n         1 MOL      0.106213
     51 C17         3.0830   -3.6660   -2.3960 c3        1 MOL     -0.368145
     52 C18         4.4110   -3.3420   -3.0330 c         1 MOL      0.675642
     53 O9          4.9450   -4.1570   -3.7800 o         1 MOL     -0.597761
     54 H23         3.2370   -5.0690   -0.7560 hn        1 MOL      0.227555
     55 H24         2.4060   -2.8150   -2.3940 h1        1 MOL      0.113881
     56 H25         2.5230   -4.4410   -2.9190 h1        1 MOL      0.113881
     57 N5          4.9200   -2.2060   -2.6980 n         1 MOL     -0.363291
     58 C19         6.1640   -1.6680   -3.2260 c3        1 MOL     -0.012890
     59 C20         7.1290   -1.0280   -2.1500 c         1 MOL      0.546700
     60 O10         8.3060   -0.9260   -2.4600 o         1 MOL     -0.571560
     61 C21         5.8980   -0.5390   -4.2650 c3        1 MOL     -0.323049
     62 C22         4.9490    0.5580   -3.8170 c         1 MOL      0.743695
     63 O11         4.5250    1.3370   -4.7090 o         1 MOL     -0.702688
     64 O12         4.7050    0.7160   -2.6290 o         1 MOL     -0.702688
     65 H26         4.3330   -1.5680   -2.1830 hn        1 MOL      0.268168
     66 H27         6.7250   -2.4770   -3.6970 h1        1 MOL      0.126996
     67 H28         5.4530   -0.9560   -5.1650 hc        1 MOL      0.062684
     68 H29         6.8180   -0.1280   -4.6920 hc        1 MOL      0.062684
     69 N6          6.6280   -0.8900   -0.9000 n         1 MOL     -0.292220
     70 C23         7.4450   -0.3180    0.2020 c3        1 MOL     -0.123768
     71 C24         7.2650    1.1860    0.4650 c         1 MOL      0.698752
     72 O13         7.8750    1.7200    1.4370 o         1 MOL     -0.644684
     73 H30         5.6540   -1.0750   -0.7380 hn        1 MOL      0.263224
     74 H31         8.5160   -0.4000    0.0140 h1        1 MOL      0.079804
     75 H32         7.2160   -0.9390    1.0720 h1        1 MOL      0.079804
     76 N7          6.5200    1.8630   -0.4510 n         1 MOL     -0.419273
     77 C25         6.5450    3.3420   -0.6040 c3        1 MOL      0.358652
     78 C26         5.9100    4.1590    0.5940 c         1 MOL      0.178871
     79 O14         6.0570    5.3950    0.6650 o         1 MOL     -0.488646
     80 C27         7.9870    3.7680   -1.0020 c3        1 MOL     -0.110831
     81 C28         8.5300    3.0600   -2.2680 c3        1 MOL     -0.030549
     82 C29         9.8530    3.6090   -2.8380 c         1 MOL      0.680858
     83 N8         10.4730    2.8220   -3.7040 n         1 MOL     -0.835567
     84 O15        10.2750    4.7110   -2.6130 o         1 MOL     -0.586293
     85 H33         6.1110    1.3960   -1.2460 hn        1 MOL      0.186885
     86 H34         5.8680    3.5210   -1.4330 h1        1 MOL      0.058648
     87 H35         8.7540    3.6600   -0.2440 hc        1 MOL      0.028247
     88 H36         7.8120    4.7940   -1.3270 hc        1 MOL      0.028247
     89 H37         7.8480    3.1360   -3.1120 hc        1 MOL      0.015559
     90 H38         8.7220    2.0190   -1.9890 hc        1 MOL      0.015559
     91 H39        10.0120    1.9590   -3.9690 hn        1 MOL      0.360047
     92 H40        11.3640    3.0600   -4.1040 hn        1 MOL      0.360047
     93 N9          5.2190    3.4810    1.5020 n         1 MOL     -0.108343
     94 C30         4.5550    4.1380    2.7250 c3        1 MOL     -0.060587
     95 C31         3.0040    3.9300    2.6870 c         1 MOL      0.451586
     96 O16         2.3000    4.4530    3.5830 o         1 MOL     -0.543070
     97 C32         5.1490    3.7800    4.1340 c3        1 MOL      0.319428
     98 C33         4.8550    2.2740    4.3530 c3        1 MOL     -0.357501
     99 C34         6.6980    4.0370    4.1160 c3        1 MOL     -0.357501
    100 H41         5.1930    2.4860    1.3590 hn        1 MOL      0.151626
    101 H42         4.7070    5.2120    2.7260 h1        1 MOL      0.102730
    102 H43         4.6110    4.2940    4.9240 hc        1 MOL     -0.039144
    103 H44         5.2610    1.6330    3.5740 hc        1 MOL      0.085299
    104 H45         5.2410    1.9220    5.3110 hc        1 MOL      0.085299
    105 H46         3.8060    2.1360    4.6020 hc        1 MOL      0.085299
    106 H47         6.8100    5.1190    4.1090 hc        1 MOL      0.085299
    107 H48         7.0620    3.4880    4.9930 hc        1 MOL      0.085299
    108 H49         7.0880    3.5250    3.2340 hc        1 MOL      0.085299
    109 N10         2.4080    3.1750    1.6820 n         1 MOL     -0.456146
    110 C35         0.9430    2.9720    1.6140 c3        1 MOL      0.469753
    111 C36         0.2990    3.7160    0.5100 c         1 MOL      0.405765
    112 O17         0.9020    4.5480   -0.2200 o         1 MOL     -0.526058
    113 C37         0.5370    1.5070    1.7320 c3        1 MOL     -0.234700
    114 C38         1.0630    0.8010    2.9540 c         1 MOL      0.651828
    115 N11         0.4980    1.0700    4.0590 n         1 MOL     -0.775304
    116 O18         2.0560    0.1820    2.9290 o         1 MOL     -0.579482
    117 H50         2.8880    2.8790    0.8410 hn        1 MOL      0.242055
    118 H51         0.5000    3.3640    2.5290 h1        1 MOL     -0.036367
    119 H52         1.0120    0.9630    0.9090 hc        1 MOL      0.077124
    120 H53        -0.5290    1.3350    1.6220 hc        1 MOL      0.077124
    121 H54        -0.3760    1.5660    4.1100 hn        1 MOL      0.356670
    122 H55         0.9380    0.6580    4.8710 hn        1 MOL      0.356670
    123 N12        -0.9980    3.5860    0.3610 n         1 MOL     -0.438422
    124 C39        -1.8820    4.3080   -0.5830 c3        1 MOL      0.125552
    125 C40        -3.3350    4.3680   -0.1050 c         1 MOL      0.508069
    126 O19        -3.7590    3.6150    0.7770 o         1 MOL     -0.575729
    127 C41        -1.7290    3.6000   -1.9770 c3        1 MOL     -0.031833
    128 C42        -2.5440    2.3830   -2.1440 ca        1 MOL      0.037337
    129 C43        -2.2090    1.2140   -1.4380 ca        1 MOL     -0.150642
    130 C44        -3.7440    2.5420   -2.9400 ca        1 MOL     -0.150642
    131 C45        -3.0130    0.0470   -1.6940 ca        1 MOL     -0.249400
    132 C46        -4.5840    1.4220   -3.0410 ca        1 MOL     -0.249400
    133 C47        -4.1320    0.1780   -2.5080 ca        1 MOL      0.342504
    134 O20        -4.9460   -0.9340   -2.7380 oh        1 MOL     -0.609023
    135 H56        -1.4600    2.9540    0.9950 hn        1 MOL      0.239901
    136 H57        -1.6710    5.3650   -0.7710 h1        1 MOL      0.058695
    137 H58        -0.6900    3.3480   -2.1630 hc        1 MOL      0.035868
    138 H59        -1.9280    4.3350   -2.7560 hc        1 MOL      0.035868
    139 H60        -1.2810    1.1520   -0.8890 ha        1 MOL      0.132320
    140 H61        -4.0420    3.5040   -3.3060 ha        1 MOL      0.132320
    141 H62        -2.6170   -0.9080   -1.3920 ha        1 MOL      0.154900
    142 H63        -5.5840    1.4950   -3.4510 ha        1 MOL      0.154900
    143 H64        -4.5480   -1.7610   -2.4430 ho        1 MOL      0.429461
    144 N13        -4.1110    5.0710   -0.9070 n         1 MOL     -0.531910
    145 C48        -5.5550    5.2480   -0.6890 c3        1 MOL      0.387297
    146 C49        -6.4250    4.3960   -1.6710 c         1 MOL      0.407762
    147 O21        -6.5920    4.8130   -2.8800 o         1 MOL     -0.557715
    148 C50        -5.9170    6.7020   -0.7130 c3        1 MOL     -0.320584
    149 C51        -5.2030    7.6150    0.2850 c3        1 MOL     -0.088356
    150 C52        -5.7910    9.0220    0.2090 c         1 MOL      0.722287
    151 O22        -6.4830    9.4600    1.1610 o         1 MOL     -0.744945
    152 O23        -5.3090    9.7490   -0.6850 o         1 MOL     -0.744945
    153 H65        -3.6090    5.5090   -1.6750 hn        1 MOL      0.321443
    154 H66        -5.6750    4.8900    0.3430 h1        1 MOL      0.032183
    155 H67        -6.9980    6.6970   -0.5830 hc        1 MOL      0.078139
    156 H68        -5.7350    7.1460   -1.6840 hc        1 MOL      0.078139
    157 H69        -4.1380    7.7020    0.0810 hc        1 MOL      0.003166
    158 H70        -5.2280    7.1430    1.2650 hc        1 MOL      0.003166
    159 N14        -6.8920    3.1650   -1.3030 n         1 MOL     -0.379010
    160 C53        -6.6610    2.3150   -0.0880 c3        1 MOL     -0.151627
    161 C54        -7.4650    2.9450    1.0500 c         1 MOL      0.526033
    162 O24        -8.5810    3.3480    0.7460 o         1 MOL     -0.534903
    163 C55        -7.0900    0.8500   -0.4900 c3        1 MOL      0.148556
    164 C56        -6.2630   -0.1190    0.4680 c3        1 MOL     -0.184442
    165 C57        -6.4900   -1.5720   -0.0220 c         1 MOL      0.846533
    166 O25        -5.5800   -2.4050   -0.0180 o         1 MOL     -0.821899
    167 O26        -7.6070   -1.8570   -0.5130 o         1 MOL     -0.821899
    168 H71        -7.5310    2.8630   -2.0280 hn        1 MOL      0.258374
    169 H72        -5.5850    2.4100    0.0840 h1        1 MOL      0.133963
    170 H73        -7.0060    0.6310   -1.5590 hc        1 MOL      0.009685
    171 H74        -8.1440    0.7450   -0.2560 hc        1 MOL      0.009685
    172 H75        -6.6280    0.1160    1.4610 hc        1 MOL      0.031298
    173 H76        -5.2080    0.0970    0.3450 hc        1 MOL      0.031298
    174 N15        -6.9280    3.0080    2.2890 n         1 MOL     -0.190274
    175 C58        -7.5680    3.5830    3.4430 c3        1 MOL     -0.391947
    176 H77        -7.8270    4.6210    3.2350 h1        1 MOL      0.138151
    177 H78        -8.4730    3.0220    3.6750 h1        1 MOL      0.138151
    178 H79        -6.8870    3.5420    4.2940 h1        1 MOL      0.138151
    179 H80        -5.9720    2.7040    2.3870 hn        1 MOL      0.229450
    180 Ca1        -6.8750   -4.5670   -0.9920 Ca        1 MOL      1.757708
    181 O27        -9.1620   -3.7380    0.3530 oh        1 MOL     -0.858499
    182 H81        -8.9940   -2.8020    0.2540 ho        1 MOL      0.415124
    183 H82       -10.0620   -3.8480    0.0490 ho        1 MOL      0.415124
    184 O28        -6.5960   -6.1900   -3.1210 oh        1 MOL     -0.858499
    185 H83        -5.8030   -6.6260   -3.4190 ho        1 MOL      0.415124
    186 H84        -7.3070   -6.5710   -3.6450 ho        1 MOL      0.415124
    187 O29        -8.1490   -6.8270   -0.4990 oh        1 MOL     -0.858499
    188 H85        -8.1580   -7.3450   -1.3070 ho        1 MOL      0.415124
    189 H86        -8.6340   -7.3570    0.1380 ho        1 MOL      0.415124
    190 O30        -8.5880   -3.8990   -2.8420 oh        1 MOL     -0.858499
    191 H87        -8.7000   -4.1620   -3.7530 ho        1 MOL      0.415124
    192 H88        -8.7320   -2.9470   -2.8450 ho        1 MOL      0.415124
@<TRIPOS>BOND
     1    1    2 1   
     2    1    4 1   
     3    1    5 1   
     4    1    6 1   
     5    2    3 2   
     6    2    7 1   
     7    7    8 1   
     8    7   15 1   
     9    8    9 1   
    10    8   11 1   
    11    8   16 1   
    12    9   10 2   
    13    9   19 1   
    14   11   12 1   
    15   11   17 1   
    16   11   18 1   
    17   12   13 1   
    18   12   14 1   
    19   19   20 1   
    20   19   27 1   
    21   20   21 1   
    22   20   23 1   
    23   20   28 1   
    24   21   22 2   
    25   21   38 1   
    26   23   24 1   
    27   23   25 1   
    28   23   29 1   
    29   24   26 1   
    30   24   30 1   
    31   24   31 1   
    32   25   32 1   
    33   25   33 1   
    34   25   34 1   
    35   26   35 1   
    36   26   36 1   
    37   26   37 1   
    38   38   39 1   
    39   38   46 1   
    40   39   40 1   
    41   39   42 1   
    42   39   47 1   
    43   40   41 2   
    44   40   50 1   
    45   42   43 1   
    46   42   48 1   
    47   42   49 1   
    48   43   44 1   
    49   43   45 1   
    50   50   51 1   
    51   50   54 1   
    52   51   52 1   
    53   51   55 1   
    54   51   56 1   
    55   52   53 2   
    56   52   57 1   
    57   57   58 1   
    58   57   65 1   
    59   58   59 1   
    60   58   61 1   
    61   58   66 1   
    62   59   60 2   
    63   59   69 1   
    64   61   62 1   
    65   61   67 1   
    66   61   68 1   
    67   62   63 1   
    68   62   64 1   
    69   69   70 1   
    70   69   73 1   
    71   70   71 1   
    72   70   74 1   
    73   70   75 1   
    74   71   72 2   
    75   71   76 1   
    76   76   77 1   
    77   76   85 1   
    78   77   78 1   
    79   77   80 1   
    80   77   86 1   
    81   78   79 2   
    82   78   93 1   
    83   80   81 1   
    84   80   87 1   
    85   80   88 1   
    86   81   82 1   
    87   81   89 1   
    88   81   90 1   
    89   82   83 1   
    90   82   84 2   
    91   83   91 1   
    92   83   92 1   
    93   93   94 1   
    94   93  100 1   
    95   94   95 1   
    96   94   97 1   
    97   94  101 1   
    98   95   96 2   
    99   95  109 1   
   100   97   98 1   
   101   97   99 1   
   102   97  102 1   
   103   98  103 1   
   104   98  104 1   
   105   98  105 1   
   106   99  106 1   
   107   99  107 1   
   108   99  108 1   
   109  109  110 1   
   110  109  117 1   
   111  110  111 1   
   112  110  113 1   
   113  110  118 1   
   114  111  112 2   
   115  111  123 1   
   116  113  114 1   
   117  113  119 1   
   118  113  120 1   
   119  114  115 1   
   120  114  116 2   
   121  115  121 1   
   122  115  122 1   
   123  123  124 1   
   124  123  135 1   
   125  124  125 1   
   126  124  127 1   
   127  124  136 1   
   128  125  126 2   
   129  125  144 1   
   130  127  128 1   
   131  127  137 1   
   132  127  138 1   
   133  128  129 ar  
   134  128  130 ar  
   135  129  131 ar  
   136  129  139 1   
   137  130  132 ar  
   138  130  140 1   
   139  131  133 ar  
   140  131  141 1   
   141  132  133 ar  
   142  132  142 1   
   143  133  134 1   
   144  134  143 1   
   145  144  145 1   
   146  144  153 1   
   147  145  146 1   
   148  145  148 1   
   149  145  154 1   
   150  146  147 2   
   151  146  159 1   
   152  148  149 1   
   153  148  155 1   
   154  148  156 1   
   155  149  150 1   
   156  149  157 1   
   157  149  158 1   
   158  150  151 1   
   159  150  152 1   
   160  159  160 1   
   161  159  168 1   
   162  160  161 1   
   163  160  163 1   
   164  160  169 1   
   165  161  162 2   
   166  161  174 1   
   167  163  164 1   
   168  163  170 1   
   169  163  171 1   
   170  164  165 1   
   171  164  172 1   
   172  164  173 1   
   173  165  166 1   
   174  165  167 1   
   175  174  175 1   
   176  174  179 1   
   177  175  176 1   
   178  175  177 1   
   179  175  178 1   
   180  181  182 1   
   181  181  183 1   
   182  184  185 1   
   183  184  186 1   
   184  187  188 1   
   185  187  189 1   
   186  190  191 1   
   187  190  192 1   
@<TRIPOS>SUBSTRUCTURE
     1 MOL         1 TEMP              0 ****  ****    0 ROOT
