@<TRIPOS>MOLECULE
MOL
  189   185     1     0     0
SMALL
resp


@<TRIPOS>ATOM
      1 C1          3.9260    4.5260   -2.8590 c3        1 MOL     -0.381272
      2 C2          4.8520    3.7320   -1.9470 c         1 MOL      0.703289
      3 O1          4.4050    3.4380   -0.8130 o         1 MOL     -0.537512
      4 H1          3.4600    3.8530   -3.5780 hc        1 MOL      0.096083
      5 H2          3.1530    5.0090   -2.2610 hc        1 MOL      0.096083
      6 H3          4.5010    5.2830   -3.3910 hc        1 MOL      0.096083
      7 N1          6.0650    3.3530   -2.3650 n         1 MOL     -0.585904
      8 C3          6.9480    2.3610   -1.7650 c3        1 MOL      0.133493
      9 C4          6.1910    1.0300   -1.5030 c         1 MOL      0.638197
     10 O2          5.9070    0.7570   -0.3280 o         1 MOL     -0.787848
     11 C5          7.9890    2.8180   -0.6900 c3        1 MOL     -0.093435
     12 C6          7.3810    3.7780    0.4090 c         1 MOL      0.726967
     13 O3          6.5780    3.3340    1.2790 o         1 MOL     -0.729737
     14 O4          7.7700    4.9740    0.4340 o         1 MOL     -0.729737
     15 H4          6.3470    3.7140   -3.2670 hn        1 MOL      0.303452
     16 H5          7.6450    2.1220   -2.5730 h1        1 MOL      0.030114
     17 H6          8.8050    3.3070   -1.2260 hc        1 MOL      0.024576
     18 H7          8.5020    1.9850   -0.2110 hc        1 MOL      0.024576
     19 N2          5.8500    0.3040   -2.5480 n         1 MOL     -0.472751
     20 C7          5.2600   -1.0620   -2.7990 c3        1 MOL      0.123267
     21 C8          5.9740   -2.1880   -2.1130 c         1 MOL      0.327009
     22 O5          6.1290   -3.1780   -2.8040 o         1 MOL     -0.586080
     23 C9          3.7240   -0.9920   -2.5330 c3        1 MOL      0.249422
     24 C10         2.9020   -2.2720   -2.9190 c3        1 MOL      0.080226
     25 C11         3.2450    0.2160   -3.3930 c3        1 MOL     -0.326656
     26 C12         2.8070   -2.6060   -4.3990 c3        1 MOL     -0.262054
     27 H8          6.0630    0.7420   -3.4300 hn        1 MOL      0.229305
     28 H9          5.3470   -1.2180   -3.8750 h1        1 MOL      0.063795
     29 H10         3.5610   -0.8100   -1.4660 hc        1 MOL     -0.153718
     30 H11         1.8980   -2.2770   -2.5030 hc        1 MOL      0.066386
     31 H12         3.3770   -3.1400   -2.4460 hc        1 MOL      0.066386
     32 H13         3.3600    0.0910   -4.4710 hc        1 MOL      0.061658
     33 H14         2.1600    0.2460   -3.2360 hc        1 MOL      0.061658
     34 H15         3.6420    1.1580   -3.0120 hc        1 MOL      0.061658
     35 H16         2.4770   -3.6290   -4.5430 hc        1 MOL      0.041864
     36 H17         2.0410   -1.9360   -4.8010 hc        1 MOL      0.041864
     37 H18         3.7050   -2.3330   -4.9550 hc        1 MOL      0.041864
     38 N3          6.3880   -2.1010   -0.8750 n         1 MOL      0.152884
     39 C13         7.1690   -3.0430   -0.1050 c3        1 MOL     -0.099413
     40 C14         6.5570   -4.4240    0.3390 c         1 MOL      0.513202
     41 O6          7.3270   -5.3120    0.5940 o         1 MOL     -0.598012
     42 C15         7.6750   -2.3360    1.2270 c3        1 MOL     -0.056050
     43 C16         8.4450   -1.1040    1.0040 c         1 MOL      0.726192
     44 O7          8.5260   -0.3370    2.0070 o         1 MOL     -0.708975
     45 O8          9.0370   -0.9500   -0.1220 o         1 MOL     -0.708975
     46 H19         6.2530   -1.2340   -0.3820 hn        1 MOL     -0.003014
     47 H20         8.1180   -3.1910   -0.6210 h1        1 MOL      0.071299
     48 H21         8.2370   -2.9490    1.9280 hc        1 MOL      0.030167
     49 H22         6.8290   -2.1310    1.8710 hc        1 MOL      0.030167
     50 N4          5.2910   -4.6920    0.4560 n         1 MOL     -0.379272
     51 C17         4.1770   -3.7820    0.4590 c3        1 MOL      0.167112
     52 C18         2.8150   -4.3910    0.9140 c         1 MOL      0.516176
     53 O9          2.3490   -5.4000    0.4130 o         1 MOL     -0.556674
     54 H23         5.1840   -5.6820    0.6460 hn        1 MOL      0.267830
     55 H24         3.9720   -3.3950   -0.5440 h1        1 MOL     -0.086134
     56 H25         4.4630   -2.9250    1.0580 h1        1 MOL     -0.086134
     57 N5          2.1780   -3.7280    1.8980 n         1 MOL     -0.424068
     58 C19         2.3060   -2.3280    2.4930 c3        1 MOL      0.390698
     59 C20         2.4550   -1.2220    1.3570 c         1 MOL      0.263644
     60 O10         3.5910   -0.7740    1.0740 o         1 MOL     -0.325479
     61 C21         3.4020   -2.2470    3.5350 c3        1 MOL     -0.581672
     62 C22         3.1610   -3.1420    4.7680 c         1 MOL      0.710545
     63 O11         2.0490   -3.0130    5.3710 o         1 MOL     -0.703655
     64 O12         4.0060   -4.0050    5.1670 o         1 MOL     -0.703655
     65 H26         1.3510   -4.1910    2.2430 hn        1 MOL      0.266578
     66 H27         1.4260   -2.2040    3.1110 h1        1 MOL     -0.049762
     67 H28         3.4610   -1.1910    3.7990 hc        1 MOL      0.163354
     68 H29         4.3110   -2.6710    3.1110 hc        1 MOL      0.163354
     69 N6          1.4640   -0.7580    0.5940 n         1 MOL     -0.191190
     70 C23         0.0440   -1.1510    0.7640 c3        1 MOL     -0.025047
     71 C24        -0.3880   -2.4100    0.1150 c         1 MOL      0.496108
     72 O13         0.3260   -2.8980   -0.7720 o         1 MOL     -0.491198
     73 H30         1.6670    0.0440    0.0180 hn        1 MOL      0.240525
     74 H31        -0.5040   -0.2950    0.3570 h1        1 MOL      0.046616
     75 H32        -0.1520   -1.2600    1.8370 h1        1 MOL      0.046616
     76 N7         -1.5910   -2.9910    0.4490 n         1 MOL     -0.418465
     77 C25        -2.1030   -4.2040   -0.0940 c3        1 MOL     -0.096038
     78 C26        -2.8920   -4.0230   -1.4470 c         1 MOL      0.527707
     79 O14        -3.1720   -4.9330   -2.1870 o         1 MOL     -0.543727
     80 C27        -2.9540   -4.9640    0.9930 c3        1 MOL      0.082900
     81 C28        -4.1040   -4.2760    1.6940 c3        1 MOL     -0.431163
     82 C29        -5.2600   -3.8450    0.7520 c         1 MOL      0.593650
     83 N8         -6.0820   -4.7690    0.3010 n         1 MOL     -0.746903
     84 O15        -5.3050   -2.7090    0.3340 o         1 MOL     -0.530536
     85 H33        -2.0420   -2.4800    1.1990 hn        1 MOL      0.277682
     86 H34        -1.2080   -4.7850   -0.3080 h1        1 MOL      0.150686
     87 H35        -2.3560   -5.4550    1.7610 hc        1 MOL      0.024000
     88 H36        -3.3320   -5.8330    0.4570 hc        1 MOL      0.024000
     89 H37        -3.6930   -3.3800    2.1500 hc        1 MOL      0.152492
     90 H38        -4.4570   -4.8810    2.5340 hc        1 MOL      0.152492
     91 H39        -5.9200   -5.7450    0.5320 hn        1 MOL      0.365465
     92 H40        -6.6760   -4.4840   -0.4620 hn        1 MOL      0.365465
     93 N9         -3.1330   -2.7480   -1.8050 n         1 MOL     -0.367006
     94 C30        -3.6130   -2.4210   -3.2050 c3        1 MOL     -0.060468
     95 C31        -4.9120   -1.6310   -3.2940 c         1 MOL      0.265917
     96 O16        -5.3150   -1.1990   -4.3840 o         1 MOL     -0.532136
     97 C32        -2.5420   -1.5160   -3.9100 c3        1 MOL      0.395585
     98 C33        -1.3790   -2.4790   -4.1440 c3        1 MOL     -0.294409
     99 C34        -2.0460   -0.1970   -3.2990 c3        1 MOL     -0.294409
    100 H41        -2.9100   -2.0460   -1.1150 hn        1 MOL      0.207268
    101 H42        -3.6650   -3.3170   -3.8150 h1        1 MOL      0.136162
    102 H43        -2.9350   -1.4270   -4.9180 hc        1 MOL     -0.041690
    103 H44        -0.9820   -2.8920   -3.2230 hc        1 MOL      0.057520
    104 H45        -1.8940   -3.1810   -4.8040 hc        1 MOL      0.057520
    105 H46        -0.5970   -2.0580   -4.7830 hc        1 MOL      0.057520
    106 H47        -1.5270    0.4200   -4.0470 hc        1 MOL      0.057520
    107 H48        -2.9430    0.2870   -2.9180 hc        1 MOL      0.057520
    108 H49        -1.4510   -0.5210   -2.4470 hc        1 MOL      0.057520
    109 N10        -5.5910   -1.4170   -2.1740 n         1 MOL     -0.070789
    110 C35        -6.9620   -0.9000   -2.2140 c3        1 MOL     -0.097099
    111 C36        -7.0680    0.5010   -1.5920 c         1 MOL      0.529279
    112 O17        -8.1350    1.1150   -1.5780 o         1 MOL     -0.543967
    113 C37        -7.8680   -1.8620   -1.5050 c3        1 MOL     -0.009632
    114 C38        -8.0650   -3.1970   -2.1610 c         1 MOL      0.626182
    115 N11        -8.1660   -3.2530   -3.4100 n         1 MOL     -0.724788
    116 O18        -8.1560   -4.1810   -1.4770 o         1 MOL     -0.589373
    117 H50        -5.3120   -1.8190   -1.2960 hn        1 MOL      0.258019
    118 H51        -7.2710   -0.8230   -3.2540 h1        1 MOL      0.070023
    119 H52        -8.8400   -1.3730   -1.6060 hc        1 MOL      0.002713
    120 H53        -7.6900   -1.9340   -0.4300 hc        1 MOL      0.002713
    121 H54        -8.0450   -2.4860   -4.0460 hn        1 MOL      0.354242
    122 H55        -8.4010   -4.1350   -3.8370 hn        1 MOL      0.354242
    123 N12        -6.0220    0.9950   -0.9120 n         1 MOL     -0.382982
    124 C39        -6.0320    2.2150   -0.0690 c3        1 MOL      0.053438
    125 C40        -4.7160    2.7680    0.3650 c         1 MOL      0.471871
    126 O19        -3.7140    2.0770    0.2670 o         1 MOL     -0.408832
    127 C41        -7.0090    1.9950    1.1300 c3        1 MOL      0.094885
    128 C42        -6.7680    0.7680    1.9360 ca        1 MOL      0.124126
    129 C43        -7.7030   -0.2860    1.9190 ca        1 MOL     -0.245715
    130 C44        -5.6120    0.7090    2.7220 ca        1 MOL     -0.245715
    131 C45        -7.4770   -1.4180    2.7140 ca        1 MOL     -0.153311
    132 C46        -5.3980   -0.4680    3.4690 ca        1 MOL     -0.153311
    133 C47        -6.3400   -1.5200    3.5440 ca        1 MOL      0.234510
    134 O20        -6.1550   -2.6230    4.3180 oh        1 MOL     -0.435315
    135 H56        -5.2300    0.3690   -0.8170 hn        1 MOL      0.164799
    136 H57        -6.5530    2.9430   -0.6820 h1        1 MOL      0.023580
    137 H58        -8.0610    1.9220    0.9060 hc        1 MOL     -0.006075
    138 H59        -6.9940    2.8570    1.8040 hc        1 MOL     -0.006075
    139 H60        -8.6100   -0.1660    1.3350 ha        1 MOL      0.143922
    140 H61        -4.8540    1.4700    2.7290 ha        1 MOL      0.143922
    141 H62        -8.1790   -2.2360    2.7690 ha        1 MOL      0.127383
    142 H63        -4.4400   -0.6370    3.9350 ha        1 MOL      0.127383
    143 H64        -6.8590   -3.2720    4.2150 ho        1 MOL      0.308109
    144 N13        -4.7410    3.9940    0.8650 n         1 MOL     -0.327495
    145 C48        -3.7040    4.9000    1.3220 c3        1 MOL      0.021765
    146 C49        -2.4720    5.1350    0.4350 c         1 MOL      0.102177
    147 O21        -1.8110    6.1920    0.5410 o         1 MOL     -0.493687
    148 C50        -3.4230    4.6670    2.8410 c3        1 MOL      0.382568
    149 C51        -4.6630    4.7500    3.7150 c3        1 MOL     -0.356224
    150 C52        -4.6430    3.7780    4.9210 c         1 MOL      0.687108
    151 O22        -4.0250    2.6660    4.8610 o         1 MOL     -0.686018
    152 O23        -5.2620    4.0330    5.9940 o         1 MOL     -0.686018
    153 H65        -5.6460    4.4400    0.8410 hn        1 MOL      0.220108
    154 H66        -4.2190    5.8570    1.4140 h1        1 MOL      0.055679
    155 H67        -2.6190    5.2590    3.2730 hc        1 MOL     -0.050351
    156 H68        -3.0670    3.6300    2.8350 hc        1 MOL     -0.050351
    157 H69        -5.6110    4.6460    3.2020 hc        1 MOL      0.030000
    158 H70        -4.7310    5.7880    4.0680 hc        1 MOL      0.030000
    159 N14        -2.1310    4.2550   -0.4880 n         1 MOL      0.000005
    160 C53        -1.0370    4.5390   -1.4350 c3        1 MOL     -0.014283
    161 C54        -1.4180    5.5070   -2.6030 c         1 MOL      0.425039
    162 O24        -0.5340    5.9200   -3.3720 o         1 MOL     -0.521660
    163 C55        -0.5110    3.1940   -1.9790 c3        1 MOL     -0.206756
    164 C56        -0.1090    2.1530   -0.9610 c3        1 MOL      0.297351
    165 C57         1.0710    2.6190   -0.0470 c         1 MOL      0.468726
    166 O25         1.0240    3.7280    0.5950 o         1 MOL     -0.585431
    167 O26         2.0630    1.8190    0.1190 o         1 MOL     -0.585431
    168 H71        -2.7290    3.4570   -0.6020 hn        1 MOL      0.094316
    169 H72        -0.2350    5.0990   -0.9500 h1        1 MOL      0.147595
    170 H73         0.4250    3.4870   -2.4370 hc        1 MOL      0.048916
    171 H74        -1.2090    2.7060   -2.6560 hc        1 MOL      0.048916
    172 H75         0.2160    1.2030   -1.3870 hc        1 MOL     -0.095284
    173 H76        -0.9500    1.8890   -0.3150 hc        1 MOL     -0.095284
    174 N15        -2.7050    5.8290   -2.6530 n         1 MOL     -0.136047
    175 C58        -3.2660    6.6320   -3.7180 c3        1 MOL     -0.302186
    176 H77        -4.3460    6.7000   -3.5900 h1        1 MOL      0.108989
    177 H78        -2.8330    7.6320   -3.6850 h1        1 MOL      0.108989
    178 H79        -3.0420    6.1690   -4.6790 h1        1 MOL      0.108989
    179 H80        -3.3240    5.2290   -2.1320 hn        1 MOL      0.179794
    180 Ca1         4.3330    1.9940    1.3730 Ca        1 MOL      1.751955
    181 O27         2.3790    1.6140    3.1780 oh        1 MOL     -0.924106
    182 H81         1.5480    2.0740    3.0760 ho        1 MOL      0.427763
    183 H82         2.3610    1.2990    4.0890 ho        1 MOL      0.427763
    184 O28         5.8750    0.1750    2.6560 oh        1 MOL     -0.924106
    185 H83         5.8760   -0.1500    3.5600 ho        1 MOL      0.427763
    186 H84         6.7640    0.0080    2.3480 ho        1 MOL      0.427763
    187 O29         3.3360    4.4720    2.0050 oh        1 MOL     -0.924106
    188 H85         3.0600    4.8210    2.8550 ho        1 MOL      0.427763
    189 H86         2.5240    4.4370    1.4880 ho        1 MOL      0.427763
@<TRIPOS>BOND
     1    1    2 1   
     2    1    4 1   
     3    1    5 1   
     4    1    6 1   
     5    2    3 2   
     6    2    7 1   
     7    7    8 1   
     8    7   15 1   
     9    8    9 1   
    10    8   11 1   
    11    8   16 1   
    12    9   10 2   
    13    9   19 1   
    14   11   12 1   
    15   11   17 1   
    16   11   18 1   
    17   12   13 1   
    18   12   14 1   
    19   19   20 1   
    20   19   27 1   
    21   20   21 1   
    22   20   23 1   
    23   20   28 1   
    24   21   22 2   
    25   21   38 1   
    26   23   24 1   
    27   23   25 1   
    28   23   29 1   
    29   24   26 1   
    30   24   30 1   
    31   24   31 1   
    32   25   32 1   
    33   25   33 1   
    34   25   34 1   
    35   26   35 1   
    36   26   36 1   
    37   26   37 1   
    38   38   39 1   
    39   38   46 1   
    40   39   40 1   
    41   39   42 1   
    42   39   47 1   
    43   40   41 2   
    44   40   50 1   
    45   42   43 1   
    46   42   48 1   
    47   42   49 1   
    48   43   44 1   
    49   43   45 1   
    50   50   51 1   
    51   50   54 1   
    52   51   52 1   
    53   51   55 1   
    54   51   56 1   
    55   52   53 2   
    56   52   57 1   
    57   57   58 1   
    58   57   65 1   
    59   58   59 1   
    60   58   61 1   
    61   58   66 1   
    62   59   60 2   
    63   59   69 1   
    64   61   62 1   
    65   61   67 1   
    66   61   68 1   
    67   62   63 1   
    68   62   64 1   
    69   69   70 1   
    70   69   73 1   
    71   70   71 1   
    72   70   74 1   
    73   70   75 1   
    74   71   72 2   
    75   71   76 1   
    76   76   77 1   
    77   76   85 1   
    78   77   78 1   
    79   77   80 1   
    80   77   86 1   
    81   78   79 2   
    82   78   93 1   
    83   80   81 1   
    84   80   87 1   
    85   80   88 1   
    86   81   82 1   
    87   81   89 1   
    88   81   90 1   
    89   82   83 1   
    90   82   84 2   
    91   83   91 1   
    92   83   92 1   
    93   93   94 1   
    94   93  100 1   
    95   94   95 1   
    96   94   97 1   
    97   94  101 1   
    98   95   96 2   
    99   95  109 1   
   100   97   98 1   
   101   97   99 1   
   102   97  102 1   
   103   98  103 1   
   104   98  104 1   
   105   98  105 1   
   106   99  106 1   
   107   99  107 1   
   108   99  108 1   
   109  109  110 1   
   110  109  117 1   
   111  110  111 1   
   112  110  113 1   
   113  110  118 1   
   114  111  112 2   
   115  111  123 1   
   116  113  114 1   
   117  113  119 1   
   118  113  120 1   
   119  114  115 1   
   120  114  116 2   
   121  115  121 1   
   122  115  122 1   
   123  123  124 1   
   124  123  135 1   
   125  124  125 1   
   126  124  127 1   
   127  124  136 1   
   128  125  126 2   
   129  125  144 1   
   130  127  128 1   
   131  127  137 1   
   132  127  138 1   
   133  128  129 ar  
   134  128  130 ar  
   135  129  131 ar  
   136  129  139 1   
   137  130  132 ar  
   138  130  140 1   
   139  131  133 ar  
   140  131  141 1   
   141  132  133 ar  
   142  132  142 1   
   143  133  134 1   
   144  134  143 1   
   145  144  145 1   
   146  144  153 1   
   147  145  146 1   
   148  145  148 1   
   149  145  154 1   
   150  146  147 2   
   151  146  159 1   
   152  148  149 1   
   153  148  155 1   
   154  148  156 1   
   155  149  150 1   
   156  149  157 1   
   157  149  158 1   
   158  150  151 1   
   159  150  152 1   
   160  159  160 1   
   161  159  168 1   
   162  160  161 1   
   163  160  163 1   
   164  160  169 1   
   165  161  162 2   
   166  161  174 1   
   167  163  164 1   
   168  163  170 1   
   169  163  171 1   
   170  164  165 1   
   171  164  172 1   
   172  164  173 1   
   173  165  166 1   
   174  165  167 1   
   175  174  175 1   
   176  174  179 1   
   177  175  176 1   
   178  175  177 1   
   179  175  178 1   
   180  181  182 1   
   181  181  183 1   
   182  184  185 1   
   183  184  186 1   
   184  187  188 1   
   185  187  189 1   
@<TRIPOS>SUBSTRUCTURE
     1 MOL         1 TEMP              0 ****  ****    0 ROOT
