@<TRIPOS>MOLECULE
MOL
  175   173     1     0     0
SMALL
resp


@<TRIPOS>ATOM
      1 C1         -6.9560    8.1670    1.8430 c3        1 MOL     -0.422659
      2 C2         -7.7750    7.3070    0.8800 c         1 MOL      0.682262
      3 O1         -8.1150    7.8060   -0.1850 o         1 MOL     -0.573111
      4 H1         -6.0520    8.5120    1.3410 hc        1 MOL      0.098506
      5 H2         -7.5480    9.0270    2.1560 hc        1 MOL      0.098506
      6 H3         -6.6830    7.5750    2.7170 hc        1 MOL      0.098506
      7 N1         -8.0960    6.0490    1.2220 n         1 MOL     -0.513923
      8 C3         -8.9790    5.2230    0.3040 c3        1 MOL      0.193590
      9 C4         -8.1260    4.4240   -0.6650 c         1 MOL      0.533994
     10 O2         -8.6950    4.0230   -1.7060 o         1 MOL     -0.504794
     11 C5         -9.9200    4.3050    1.1420 c3        1 MOL     -0.133754
     12 C6        -10.9010    3.4960    0.3740 c         1 MOL      0.691947
     13 O3        -10.9790    2.2380    0.4770 o         1 MOL     -0.722479
     14 O4        -11.6520    4.1830   -0.4180 o         1 MOL     -0.722479
     15 H4         -7.9810    5.6710    2.1500 hn        1 MOL      0.278304
     16 H5         -9.6340    5.8340   -0.3150 h1        1 MOL      0.039492
     17 H6        -10.4280    4.9120    1.9020 hc        1 MOL     -0.020348
     18 H7         -9.3450    3.5440    1.6650 hc        1 MOL     -0.020348
     19 N2         -6.8180    4.1760   -0.3090 n         1 MOL     -0.545279
     20 C7         -5.8680    3.4170   -1.0680 c3        1 MOL      0.295140
     21 C8         -4.9100    2.5400   -0.1520 c         1 MOL      0.497971
     22 O5         -4.4960    3.0420    0.9140 o         1 MOL     -0.540593
     23 C9         -5.0100    4.2980   -1.8750 c3        1 MOL     -0.294877
     24 H8         -6.4400    4.4260    0.5900 hn        1 MOL      0.262126
     25 H9         -6.3180    2.8120   -1.8550 h1        1 MOL      0.022891
     26 H10        -4.5000    4.9420   -1.1560 hc        1 MOL      0.074523
     27 H11        -4.2610    3.6890   -2.3840 hc        1 MOL      0.074523
     28 H12        -5.5200    4.9630   -2.5730 hc        1 MOL      0.074523
     29 N3         -4.6690    1.2030   -0.3400 n         1 MOL     -0.393284
     30 C10        -5.4140    0.2280   -1.1390 c3        1 MOL     -0.053766
     31 C11        -5.5430   -1.0950   -0.4010 c         1 MOL      0.578802
     32 O6         -4.5420   -1.5330    0.2020 o         1 MOL     -0.549797
     33 C12        -4.5230   -0.1010   -2.3880 c3        1 MOL     -0.301749
     34 C13        -3.0310   -0.2960   -2.1160 c         1 MOL      0.824645
     35 O7         -2.2730    0.5980   -1.6590 o         1 MOL     -0.759427
     36 O8         -2.5550   -1.4030   -2.3330 o         1 MOL     -0.759427
     37 H13        -3.9510    0.9320    0.3170 hn        1 MOL      0.274472
     38 H14        -6.4380    0.5250   -1.3730 h1        1 MOL      0.087130
     39 H15        -4.5050    0.7250   -3.0920 hc        1 MOL      0.081700
     40 H16        -4.8610   -1.0150   -2.8880 hc        1 MOL      0.081700
     41 N4         -6.6510   -1.7910   -0.5360 n         1 MOL     -0.496627
     42 C14        -6.8260   -3.2130   -0.0800 c3        1 MOL      0.083057
     43 C15        -6.8530   -4.2230   -1.2470 c         1 MOL      0.520622
     44 O9         -7.8760   -4.3570   -1.8630 o         1 MOL     -0.556041
     45 H17        -7.3310   -1.5270   -1.2350 hn        1 MOL      0.353395
     46 H18        -7.7970   -3.3250    0.4090 h1        1 MOL      0.046761
     47 H19        -6.1300   -3.6020    0.6730 h1        1 MOL      0.046761
     48 N5         -5.7480   -4.8260   -1.6140 n         1 MOL     -0.516307
     49 C16        -4.3800   -4.5390   -1.1400 c3        1 MOL      0.156061
     50 C17        -4.0390   -5.1120    0.3360 c         1 MOL      0.511561
     51 O10        -4.2230   -6.2940    0.5950 o         1 MOL     -0.570766
     52 C18        -3.2810   -4.9440   -2.1980 c3        1 MOL     -0.453961
     53 C19        -1.8810   -4.3890   -1.9700 c         1 MOL      0.780648
     54 N6         -0.9450   -4.4980   -2.9070 n         1 MOL     -0.793083
     55 O11        -1.6090   -3.8610   -0.9320 o         1 MOL     -0.663316
     56 H20        -5.7830   -5.4920   -2.3710 hn        1 MOL      0.316981
     57 H21        -4.4510   -3.4560   -1.0440 h1        1 MOL      0.157474
     58 H22        -3.5780   -4.5470   -3.1720 hc        1 MOL      0.126933
     59 H23        -3.2250   -6.0260   -2.1420 hc        1 MOL      0.126933
     60 H24        -1.1150   -4.8080   -3.8530 hn        1 MOL      0.364967
     61 H25         0.0060   -4.3570   -2.5870 hn        1 MOL      0.364967
     62 N7         -3.5400   -4.2730    1.2110 n         1 MOL     -0.162564
     63 C20        -3.3630   -4.7790    2.6010 c3        1 MOL     -0.287039
     64 C21        -1.9830   -5.3260    2.7230 c         1 MOL      0.610316
     65 O12        -1.6970   -5.8580    3.7740 o         1 MOL     -0.612438
     66 H26        -3.3170   -3.3130    1.0000 hn        1 MOL      0.193672
     67 H27        -4.0650   -5.5640    2.8830 h1        1 MOL      0.127924
     68 H28        -3.4860   -3.9830    3.3270 h1        1 MOL      0.127924
     69 N8         -1.0940   -5.1110    1.7910 n         1 MOL     -0.346528
     70 C22         0.4280   -5.2810    1.8770 c3        1 MOL      0.000776
     71 C23         1.1060   -3.9460    1.7400 c         1 MOL      0.518054
     72 O13         0.5930   -3.0220    1.1190 o         1 MOL     -0.545545
     73 C24         0.9240   -6.3450    0.8400 c3        1 MOL      0.321833
     74 C25         0.2850   -7.6890    1.2020 c3        1 MOL     -0.316579
     75 O14         0.6020   -6.0860   -0.5650 oh        1 MOL     -0.645054
     76 H29        -1.5430   -4.6940    0.9920 hn        1 MOL      0.285180
     77 H30         0.5560   -5.6760    2.8890 h1        1 MOL      0.054853
     78 H31         1.9980   -6.4340    1.0120 h1        1 MOL     -0.001003
     79 H32         1.1740   -5.3910   -0.9010 ho        1 MOL      0.450994
     80 H33         0.4850   -8.4910    0.4890 hc        1 MOL      0.079839
     81 H34         0.6520   -8.0120    2.1880 hc        1 MOL      0.079839
     82 H35        -0.7930   -7.6220    1.2600 hc        1 MOL      0.079839
     83 N9          2.2860   -3.8840    2.2880 n         1 MOL     -0.414350
     84 C26         3.2120   -2.7800    2.2230 c3        1 MOL     -0.030185
     85 C27         4.1090   -3.0680    1.0350 c         1 MOL      0.548407
     86 O15         4.7770   -4.0960    1.0750 o         1 MOL     -0.571364
     87 C28         4.1240   -2.6010    3.5600 c3        1 MOL      0.427297
     88 C29         5.1990   -1.4890    3.6190 c3        1 MOL     -0.158870
     89 C30         3.2010   -2.3510    4.7540 c3        1 MOL     -0.618058
     90 C31         4.6520   -0.1940    3.0830 c3        1 MOL     -0.277782
     91 H36         2.6480   -4.6920    2.7710 hn        1 MOL      0.263879
     92 H37         2.6920   -1.8290    2.0950 h1        1 MOL      0.106662
     93 H38         4.6790   -3.5090    3.8050 hc        1 MOL     -0.062297
     94 H39         5.9220   -1.9130    2.9290 hc        1 MOL      0.032707
     95 H40         5.5640   -1.4310    4.6520 hc        1 MOL      0.032707
     96 H41         2.2540   -1.8890    4.4990 hc        1 MOL      0.143379
     97 H42         3.0300   -3.3640    5.1230 hc        1 MOL      0.143379
     98 H43         3.6780   -1.8170    5.5650 hc        1 MOL      0.143379
     99 H44         4.5050   -0.3490    2.0210 hc        1 MOL      0.097740
    100 H45         3.6880    0.0380    3.5320 hc        1 MOL      0.097740
    101 H46         5.3710    0.5720    3.3590 hc        1 MOL      0.097740
    102 N10         4.0570   -2.2130   -0.0020 n         1 MOL     -0.473144
    103 C32         4.6370   -2.5070   -1.3070 c3        1 MOL      0.158807
    104 C33         5.6700   -1.4000   -1.7680 c         1 MOL      0.381577
    105 O16         6.3670   -1.4650   -2.8060 o         1 MOL     -0.559923
    106 C34         3.6050   -2.6220   -2.4530 c3        1 MOL     -0.322151
    107 C35         2.2790   -3.2080   -2.0380 c         1 MOL      0.935857
    108 O17         2.2590   -4.4000   -1.6310 o         1 MOL     -0.773212
    109 O18         1.2180   -2.6250   -2.2500 o         1 MOL     -0.773212
    110 H47         3.4440   -1.4110    0.0610 hn        1 MOL      0.264314
    111 H48         5.2170   -3.4260   -1.2400 h1        1 MOL      0.091373
    112 H49         3.9250   -3.1440   -3.3500 hc        1 MOL      0.084033
    113 H50         3.2650   -1.6100   -2.6560 hc        1 MOL      0.084033
    114 N11         5.8490   -0.3860   -0.9900 n         1 MOL     -0.245768
    115 C36         6.7890    0.7220   -1.2450 c3        1 MOL      0.152739
    116 C37         6.4530    2.0020   -0.3640 c         1 MOL      0.372748
    117 O19         6.1240    1.9130    0.8470 o         1 MOL     -0.477051
    118 C38         8.1700    0.2090   -0.8760 c3        1 MOL     -0.283114
    119 C39         9.2860    1.2060   -0.9180 ca        1 MOL      0.102346
    120 C40         9.5650    2.0770    0.2130 ca        1 MOL     -0.150648
    121 C41        10.0910    1.3300   -2.0600 ca        1 MOL     -0.150648
    122 C42        10.5410    3.0850    0.0970 ca        1 MOL     -0.150796
    123 C43        10.9860    2.3820   -2.1930 ca        1 MOL     -0.150796
    124 C44        11.2810    3.1640   -1.0570 ca        1 MOL     -0.059771
    125 H51         5.2330   -0.2700   -0.1900 hn        1 MOL      0.200080
    126 H52         6.6010    0.8840   -2.3120 h1        1 MOL      0.068245
    127 H53         8.4140   -0.5870   -1.5880 hc        1 MOL      0.113023
    128 H54         8.1100   -0.1720    0.1430 hc        1 MOL      0.113023
    129 H55         9.0030    1.9460    1.1230 ha        1 MOL      0.131972
    130 H56         9.9290    0.6080   -2.8480 ha        1 MOL      0.131972
    131 H57        10.7700    3.7370    0.9340 ha        1 MOL      0.117118
    132 H58        11.5210    2.6050   -3.1030 ha        1 MOL      0.117118
    133 H59        12.1370    3.8130   -1.1500 ha        1 MOL      0.085435
    134 N12         6.6800    3.2430   -0.9510 n         1 MOL     -0.213423
    135 C45         6.5390    4.5230   -0.2570 c3        1 MOL      0.123335
    136 C46         5.1180    4.9750    0.2070 c         1 MOL      0.300776
    137 O20         4.9110    6.1680    0.5450 o         1 MOL     -0.530519
    138 C47         7.1570    5.6360   -1.2130 c3        1 MOL     -0.143655
    139 C48         7.8510    4.7890   -2.3200 c3        1 MOL      0.136105
    140 C49         7.1930    3.4640   -2.2930 c3        1 MOL      0.002689
    141 H60         7.1010    4.5600    0.6680 h1        1 MOL      0.056201
    142 H61         6.3430    6.1900   -1.6660 hc        1 MOL      0.066025
    143 H62         7.7780    6.4190   -0.7870 hc        1 MOL      0.066025
    144 H63         7.7380    5.2310   -3.3110 hc        1 MOL     -0.026029
    145 H64         8.9110    4.7730   -2.0660 hc        1 MOL     -0.026029
    146 H65         6.3650    3.5040   -2.9960 h1        1 MOL      0.036553
    147 H66         7.9270    2.7280   -2.6120 h1        1 MOL      0.036553
    148 N13         4.1520    4.1310    0.1000 n         1 MOL     -0.078843
    149 C50         2.7670    4.3610    0.5690 c3        1 MOL     -0.346577
    150 C51         2.5600    4.8230    2.0120 c         1 MOL      0.571968
    151 O21         1.6160    5.4970    2.4080 o         1 MOL     -0.536786
    152 C52         1.8980    3.1050    0.2360 c3        1 MOL     -0.029449
    153 C53         2.2980    1.8640    1.0140 c3        1 MOL      0.077074
    154 C54         1.5860    0.6670    0.4720 c         1 MOL      0.618296
    155 O22         0.4260    0.3740    0.8760 o         1 MOL     -0.723901
    156 O23         2.1160   -0.0730   -0.4070 o         1 MOL     -0.723901
    157 H67         4.4200    3.1700   -0.0500 hn        1 MOL      0.111424
    158 H68         2.4080    5.1340   -0.1170 h1        1 MOL      0.178536
    159 H69         1.8880    2.8740   -0.8210 hc        1 MOL      0.064963
    160 H70         0.8560    3.3590    0.4650 hc        1 MOL      0.064963
    161 H71         2.1830    1.9520    2.0940 hc        1 MOL     -0.030261
    162 H72         3.3540    1.6060    0.9280 hc        1 MOL     -0.030261
    163 N14         3.4780    4.5220    2.9090 n         1 MOL     -0.111834
    164 C55         3.4590    4.9790    4.3090 c3        1 MOL     -0.297885
    165 H73         2.5010    4.7240    4.7610 h1        1 MOL      0.115830
    166 H74         4.2620    4.4920    4.8620 h1        1 MOL      0.115830
    167 H75         3.5990    6.0590    4.3410 h1        1 MOL      0.115830
    168 H76         4.1670    3.8360    2.6220 hn        1 MOL      0.164065
    169 Ca1        -0.3440   -1.3680   -0.8240 Ca        1 MOL      1.725074
    170 O24        -2.1910   -1.4570    1.2310 oh        1 MOL     -0.837863
    171 H77        -3.0930   -1.4270    0.8980 ho        1 MOL      0.401201
    172 H78        -2.0360   -0.5880    1.5850 ho        1 MOL      0.401201
    173 O25         0.4450    0.0140   -3.0850 oh        1 MOL     -0.837863
    174 H79         1.2830    0.1080   -3.5490 ho        1 MOL      0.401201
    175 H80        -0.1850    0.4990   -3.6230 ho        1 MOL      0.401201
@<TRIPOS>BOND
     1    1    2 1   
     2    1    4 1   
     3    1    5 1   
     4    1    6 1   
     5    2    3 2   
     6    2    7 1   
     7    7    8 1   
     8    7   15 1   
     9    8    9 1   
    10    8   11 1   
    11    8   16 1   
    12    9   10 2   
    13    9   19 1   
    14   11   12 1   
    15   11   17 1   
    16   11   18 1   
    17   12   13 1   
    18   12   14 1   
    19   19   20 1   
    20   19   24 1   
    21   20   21 1   
    22   20   23 1   
    23   20   25 1   
    24   21   22 2   
    25   21   29 1   
    26   23   26 1   
    27   23   27 1   
    28   23   28 1   
    29   29   30 1   
    30   29   37 1   
    31   30   31 1   
    32   30   33 1   
    33   30   38 1   
    34   31   32 2   
    35   31   41 1   
    36   33   34 1   
    37   33   39 1   
    38   33   40 1   
    39   34   35 1   
    40   34   36 1   
    41   41   42 1   
    42   41   45 1   
    43   42   43 1   
    44   42   46 1   
    45   42   47 1   
    46   43   44 2   
    47   43   48 1   
    48   48   49 1   
    49   48   56 1   
    50   49   50 1   
    51   49   52 1   
    52   49   57 1   
    53   50   51 2   
    54   50   62 1   
    55   52   53 1   
    56   52   58 1   
    57   52   59 1   
    58   53   54 1   
    59   53   55 2   
    60   54   60 1   
    61   54   61 1   
    62   62   63 1   
    63   62   66 1   
    64   63   64 1   
    65   63   67 1   
    66   63   68 1   
    67   64   65 2   
    68   64   69 1   
    69   69   70 1   
    70   69   76 1   
    71   70   71 1   
    72   70   73 1   
    73   70   77 1   
    74   71   72 2   
    75   71   83 1   
    76   73   74 1   
    77   73   75 1   
    78   73   78 1   
    79   74   80 1   
    80   74   81 1   
    81   74   82 1   
    82   75   79 1   
    83   83   84 1   
    84   83   91 1   
    85   84   85 1   
    86   84   87 1   
    87   84   92 1   
    88   85   86 2   
    89   85  102 1   
    90   87   88 1   
    91   87   89 1   
    92   87   93 1   
    93   88   90 1   
    94   88   94 1   
    95   88   95 1   
    96   89   96 1   
    97   89   97 1   
    98   89   98 1   
    99   90   99 1   
   100   90  100 1   
   101   90  101 1   
   102  102  103 1   
   103  102  110 1   
   104  103  104 1   
   105  103  106 1   
   106  103  111 1   
   107  104  105 2   
   108  104  114 1   
   109  106  107 1   
   110  106  112 1   
   111  106  113 1   
   112  107  108 1   
   113  107  109 1   
   114  114  115 1   
   115  114  125 1   
   116  115  116 1   
   117  115  118 1   
   118  115  126 1   
   119  116  117 2   
   120  116  134 1   
   121  118  119 1   
   122  118  127 1   
   123  118  128 1   
   124  119  120 ar  
   125  119  121 ar  
   126  120  122 ar  
   127  120  129 1   
   128  121  123 ar  
   129  121  130 1   
   130  122  124 ar  
   131  122  131 1   
   132  123  124 ar  
   133  123  132 1   
   134  124  133 1   
   135  134  135 1   
   136  134  140 1   
   137  135  136 1   
   138  135  138 1   
   139  135  141 1   
   140  136  137 2   
   141  136  148 1   
   142  138  139 1   
   143  138  142 1   
   144  138  143 1   
   145  139  140 1   
   146  139  144 1   
   147  139  145 1   
   148  140  146 1   
   149  140  147 1   
   150  148  149 1   
   151  148  157 1   
   152  149  150 1   
   153  149  152 1   
   154  149  158 1   
   155  150  151 2   
   156  150  163 1   
   157  152  153 1   
   158  152  159 1   
   159  152  160 1   
   160  153  154 1   
   161  153  161 1   
   162  153  162 1   
   163  154  155 1   
   164  154  156 1   
   165  163  164 1   
   166  163  168 1   
   167  164  165 1   
   168  164  166 1   
   169  164  167 1   
   170  170  171 1   
   171  170  172 1   
   172  173  174 1   
   173  173  175 1   
@<TRIPOS>SUBSTRUCTURE
     1 MOL         1 TEMP              0 ****  ****    0 ROOT
