@<TRIPOS>MOLECULE
MOL
  195   189     1     0     0
SMALL
resp


@<TRIPOS>ATOM
      1 C1          5.0020   -1.9350   -2.6610 c3        1 MOL     -0.558845
      2 C2          4.0770   -2.5190   -1.5910 c         1 MOL      0.770294
      3 O1          3.1010   -1.8220   -1.1420 o         1 MOL     -0.517558
      4 H1          5.7380   -2.6850   -2.9540 hc        1 MOL      0.143274
      5 H2          4.4140   -1.6440   -3.5320 hc        1 MOL      0.143274
      6 H3          5.5160   -1.0600   -2.2610 hc        1 MOL      0.143274
      7 N1          4.2760   -3.7980   -1.1590 n         1 MOL     -0.697753
      8 C3          3.4130   -4.4960   -0.2000 c3        1 MOL      0.171302
      9 C4          1.8930   -4.5940   -0.4950 c         1 MOL      0.730405
     10 O2          1.0480   -4.5440    0.4150 o         1 MOL     -0.585687
     11 C5          3.6260   -4.2750    1.3030 c3        1 MOL     -0.296339
     12 C6          5.0930   -4.1050    1.6200 c         1 MOL      0.625856
     13 O3          5.9620   -4.7790    1.0090 o         1 MOL     -0.654725
     14 O4          5.4240   -3.3290    2.5400 o         1 MOL     -0.654725
     15 H4          5.0280   -4.3050   -1.5930 hn        1 MOL      0.334980
     16 H5          3.7090   -5.5410   -0.2680 h1        1 MOL      0.020463
     17 H6          3.2640   -5.1470    1.8460 hc        1 MOL      0.107827
     18 H7          3.0100   -3.3890    1.4780 hc        1 MOL      0.107827
     19 N2          1.4940   -4.7780   -1.7510 n         1 MOL     -0.715427
     20 C7          0.0740   -4.7490   -2.1630 c3        1 MOL      0.057820
     21 C8         -0.5940   -6.0860   -1.6420 c         1 MOL      0.534387
     22 O5          0.1010   -7.1340   -1.6140 o         1 MOL     -0.591175
     23 C9          0.0190   -4.7300   -3.7020 c3        1 MOL      0.052861
     24 C10         0.8410   -5.8310   -4.4250 c3        1 MOL      0.203756
     25 C11         0.3090   -3.1880   -4.0740 c3        1 MOL     -0.205963
     26 C12         0.3440   -6.2310   -5.8140 c3        1 MOL     -0.082917
     27 H8          2.1940   -4.9500   -2.4550 hn        1 MOL      0.322792
     28 H9         -0.3930   -3.8640   -1.7220 h1        1 MOL      0.191943
     29 H10        -0.9930   -4.9060   -4.0560 hc        1 MOL      0.018593
     30 H11         0.9500   -6.7610   -3.8600 hc        1 MOL     -0.052605
     31 H12         1.8550   -5.4110   -4.4260 hc        1 MOL     -0.052605
     32 H13         1.2420   -2.7910   -3.6880 hc        1 MOL      0.044764
     33 H14         0.4430   -3.0640   -5.1450 hc        1 MOL      0.044764
     34 H15        -0.5470   -2.6270   -3.6690 hc        1 MOL      0.044764
     35 H16        -0.5270   -6.8900   -5.8050 hc        1 MOL      0.003457
     36 H17         0.0630   -5.3780   -6.4430 hc        1 MOL      0.003457
     37 H18         1.1430   -6.6500   -6.4230 hc        1 MOL      0.003457
     38 N3         -1.8350   -6.1340   -1.2700 n         1 MOL     -0.440077
     39 C13        -2.6190   -5.0660   -0.8210 c3        1 MOL      0.002961
     40 C14        -3.5780   -5.4740    0.3500 c         1 MOL      0.509770
     41 O6         -4.6230   -6.0380    0.0180 o         1 MOL     -0.486278
     42 C15        -3.4430   -4.5270   -2.0220 c3        1 MOL     -0.262586
     43 C16        -4.6250   -3.7150   -1.5220 c         1 MOL      0.727167
     44 O7         -5.7630   -3.9740   -1.9400 o         1 MOL     -0.689569
     45 O8         -4.3810   -2.7530   -0.7790 o         1 MOL     -0.689569
     46 H19        -2.0290   -7.0100   -0.8150 hn        1 MOL      0.293866
     47 H20        -2.0450   -4.2200   -0.4570 h1        1 MOL      0.037750
     48 H21        -3.8960   -5.3890   -2.5210 hc        1 MOL      0.053692
     49 H22        -2.7530   -4.0620   -2.7370 hc        1 MOL      0.053692
     50 N4         -3.2420   -5.1970    1.6090 n         1 MOL     -0.405380
     51 C17        -4.0420   -5.5110    2.7770 c3        1 MOL     -0.080085
     52 C18        -4.9090   -4.3560    3.2790 c         1 MOL      0.592599
     53 O9         -5.1610   -4.3310    4.4640 o         1 MOL     -0.588845
     54 H23        -2.3830   -4.6780    1.7370 hn        1 MOL      0.322745
     55 H24        -3.3120   -5.9380    3.4670 h1        1 MOL      0.070872
     56 H25        -4.6620   -6.3840    2.5430 h1        1 MOL      0.070872
     57 N5         -5.3360   -3.4150    2.4080 n         1 MOL     -0.420569
     58 C19        -6.1680   -2.3390    2.8730 c3        1 MOL      0.203638
     59 C20        -7.2820   -1.9150    1.7920 c         1 MOL      0.292152
     60 O10        -8.4380   -1.6680    2.1130 o         1 MOL     -0.548303
     61 C21        -5.3480   -1.1320    3.4100 c3        1 MOL     -0.172890
     62 C22        -4.3030   -0.4930    2.3920 c         1 MOL      0.749719
     63 O11        -3.0910   -0.8250    2.4640 o         1 MOL     -0.700051
     64 O12        -4.7120    0.3300    1.5610 o         1 MOL     -0.700051
     65 H26        -5.1120   -3.4530    1.4300 hn        1 MOL      0.202475
     66 H27        -6.7810   -2.6390    3.7270 h1        1 MOL      0.034734
     67 H28        -4.8230   -1.4310    4.3260 hc        1 MOL      0.013788
     68 H29        -6.0250   -0.3200    3.6460 hc        1 MOL      0.013788
     69 N6         -6.9450   -1.8330    0.5070 n         1 MOL     -0.035121
     70 C23        -7.7390   -1.3210   -0.5720 c3        1 MOL     -0.544036
     71 C24        -7.9790    0.1650   -0.4860 c         1 MOL      0.572414
     72 O13        -8.8740    0.6660   -1.2160 o         1 MOL     -0.604972
     73 H30        -5.9760   -1.9850    0.2520 hn        1 MOL      0.242724
     74 H31        -8.6860   -1.8570   -0.6290 h1        1 MOL      0.210244
     75 H32        -7.1260   -1.4140   -1.4690 h1        1 MOL      0.210244
     76 N7         -7.2490    0.9060    0.3790 n         1 MOL     -0.047679
     77 C25        -7.1100    2.3510    0.6540 c3        1 MOL     -0.173551
     78 C26        -6.8780    3.2080   -0.5950 c         1 MOL      0.655397
     79 O14        -7.2590    4.3850   -0.7400 o         1 MOL     -0.555634
     80 C27        -8.1640    2.8920    1.6110 c3        1 MOL      0.092862
     81 C28        -8.1110    2.2270    2.9210 c3        1 MOL     -0.062298
     82 C29        -8.8870    2.8820    4.0600 c         1 MOL      0.546008
     83 N8         -9.5700    2.0660    4.8300 n         1 MOL     -0.704389
     84 O15        -8.8330    4.0660    4.4470 o         1 MOL     -0.568537
     85 H33        -6.4120    0.5100    0.7960 hn        1 MOL      0.074510
     86 H34        -6.2450    2.4060    1.3180 h1        1 MOL      0.134209
     87 H35        -9.1420    2.7870    1.1460 hc        1 MOL     -0.022707
     88 H36        -7.9380    3.9530    1.7500 hc        1 MOL     -0.022707
     89 H37        -7.0560    2.1770    3.1970 hc        1 MOL      0.030820
     90 H38        -8.3510    1.1640    2.9500 hc        1 MOL      0.030820
     91 H39        -9.6870    1.1090    4.5470 hn        1 MOL      0.325823
     92 H40       -10.1700    2.4390    5.5630 hn        1 MOL      0.325823
     93 N9         -6.1760    2.5880   -1.5300 n         1 MOL     -0.442412
     94 C30        -5.6730    3.1290   -2.7610 c3        1 MOL     -0.071786
     95 C31        -4.1810    3.1830   -2.8650 c         1 MOL      0.716244
     96 O16        -3.6580    4.1760   -3.3240 o         1 MOL     -0.595825
     97 C32        -6.3560    2.4900   -4.0830 c3        1 MOL      0.299410
     98 C33        -6.0610    0.9660   -4.3220 c3        1 MOL     -0.340986
     99 C34        -7.8630    2.5340   -4.1870 c3        1 MOL     -0.340986
    100 H41        -5.9510    1.6140   -1.3910 hn        1 MOL      0.236303
    101 H42        -5.9810    4.1810   -2.7830 h1        1 MOL      0.065997
    102 H43        -5.8540    3.0200   -4.8810 hc        1 MOL     -0.061706
    103 H44        -6.7010    0.3700   -3.6550 hc        1 MOL      0.077009
    104 H45        -6.2790    0.7070   -5.3560 hc        1 MOL      0.077009
    105 H46        -5.0280    0.6860   -4.0970 hc        1 MOL      0.077009
    106 H47        -8.1020    2.2960   -5.2190 hc        1 MOL      0.077009
    107 H48        -8.1340    1.8890   -3.3490 hc        1 MOL      0.077009
    108 H49        -8.2500    3.5300   -3.9880 hc        1 MOL      0.077009
    109 N10        -3.5030    2.1420   -2.4370 n         1 MOL     -0.620046
    110 C35        -2.0110    1.9860   -2.5080 c3        1 MOL      0.119806
    111 C36        -1.3410    2.7410   -1.3480 c         1 MOL      0.672531
    112 O17        -2.0610    3.1180   -0.4330 o         1 MOL     -0.526894
    113 C37        -1.7010    0.4520   -2.5870 c3        1 MOL     -0.100575
    114 C38        -0.2080    0.2250   -2.5660 c         1 MOL      0.535459
    115 N11         0.1800   -0.7550   -1.7430 n         1 MOL     -0.628472
    116 O18         0.5100    0.8950   -3.3030 o         1 MOL     -0.554079
    117 H50        -4.0300    1.3960   -2.0010 hn        1 MOL      0.341724
    118 H51        -1.7560    2.4170   -3.4730 h1        1 MOL      0.059447
    119 H52        -2.0720    0.0770   -3.5400 hc        1 MOL      0.051037
    120 H53        -2.2130   -0.0990   -1.8060 hc        1 MOL      0.051037
    121 H54        -0.5240   -1.2020   -1.1660 hn        1 MOL      0.320229
    122 H55         1.1430   -1.0410   -1.7850 hn        1 MOL      0.320229
    123 N12         0.0120    2.8400   -1.3100 n         1 MOL     -0.757997
    124 C39         0.7170    3.3120   -0.1310 c3        1 MOL      0.359154
    125 C40         2.0910    3.8480   -0.6410 c         1 MOL      0.766338
    126 O19         2.6930    3.3110   -1.5780 o         1 MOL     -0.610814
    127 C41         0.8590    2.2760    0.9360 c3        1 MOL     -0.046596
    128 C42         1.0030    2.9110    2.2840 ca        1 MOL     -0.061534
    129 C43         2.3310    3.1750    2.8500 ca        1 MOL     -0.062270
    130 C44        -0.0960    3.1410    3.0640 ca        1 MOL     -0.062270
    131 C45         2.4590    3.7160    4.1730 ca        1 MOL     -0.332381
    132 C46         0.0160    3.6650    4.3340 ca        1 MOL     -0.332381
    133 C47         1.3040    3.9780    4.9090 ca        1 MOL      0.369292
    134 O20         1.4680    4.6080    6.0790 oh        1 MOL     -0.513405
    135 H56         0.5410    2.3750   -2.0230 hn        1 MOL      0.315138
    136 H57         0.2510    4.2390    0.2020 h1        1 MOL      0.009845
    137 H58         1.7140    1.6300    0.7300 hc        1 MOL      0.055841
    138 H59        -0.0190    1.6160    0.9320 hc        1 MOL      0.055841
    139 H60         3.2380    3.0220    2.2840 ha        1 MOL      0.124443
    140 H61        -1.0120    2.9330    2.5270 ha        1 MOL      0.124443
    141 H62         3.4530    4.0150    4.4640 ha        1 MOL      0.166471
    142 H63        -0.9020    3.9540    4.8310 ha        1 MOL      0.166471
    143 H64         2.3740    4.8260    6.3330 ho        1 MOL      0.360395
    144 N13         2.5820    4.8030    0.0780 n         1 MOL     -0.984325
    145 C48         3.8670    5.4130   -0.0630 c3        1 MOL      0.501729
    146 C49         4.8980    5.1060    0.9810 c         1 MOL      0.317260
    147 O21         4.9510    5.8130    1.9550 o         1 MOL     -0.549039
    148 C50         3.6590    6.9250   -0.2200 c3        1 MOL      0.003316
    149 C51         2.7590    7.3940   -1.3920 c3        1 MOL     -0.231137
    150 C52         2.9850    8.9250   -1.6250 c         1 MOL      0.674302
    151 O22         3.4370    9.3400   -2.7320 o         1 MOL     -0.670988
    152 O23         2.7570    9.7670   -0.7220 o         1 MOL     -0.670988
    153 H65         2.0830    5.2830    0.8060 hn        1 MOL      0.410652
    154 H66         4.3960    5.1750   -0.9850 h1        1 MOL      0.019190
    155 H67         4.6570    7.3220   -0.4270 hc        1 MOL      0.015816
    156 H68         3.2660    7.3070    0.7160 hc        1 MOL      0.015816
    157 H69         1.6920    7.2410   -1.2230 hc        1 MOL      0.047033
    158 H70         3.0350    6.9050   -2.3310 hc        1 MOL      0.047033
    159 N14         5.7740    4.1300    0.8130 n         1 MOL     -0.263587
    160 C53         6.0540    3.3040   -0.3830 c3        1 MOL     -0.403524
    161 C54         6.6490    4.0650   -1.6220 c         1 MOL      0.722373
    162 O24         7.5670    4.8460   -1.5040 o         1 MOL     -0.554673
    163 C55         6.9540    2.1050    0.0050 c3        1 MOL      0.022759
    164 C56         7.0430    0.9170   -0.9750 c3        1 MOL     -0.030138
    165 C57         7.3680   -0.4070   -0.2780 c         1 MOL      0.643035
    166 O25         8.5460   -0.6970   -0.1200 o         1 MOL     -0.722090
    167 O26         6.5550   -1.1110    0.2790 o         1 MOL     -0.722090
    168 H71         6.2770    3.9320    1.6600 hn        1 MOL      0.237309
    169 H72         5.1210    2.7890   -0.6320 h1        1 MOL      0.154275
    170 H73         6.5510    1.7070    0.9410 hc        1 MOL      0.063744
    171 H74         7.9870    2.3920    0.2200 hc        1 MOL      0.063744
    172 H75         7.8780    1.1460   -1.6360 hc        1 MOL     -0.025659
    173 H76         6.1120    0.8610   -1.5480 hc        1 MOL     -0.025659
    174 N15         5.9530    3.8020   -2.7500 n         1 MOL     -0.381411
    175 C58         6.0710    4.3580   -4.1160 c3        1 MOL     -0.216883
    176 H77         6.9220    3.9020   -4.6220 h1        1 MOL      0.102742
    177 H78         5.1600    4.1450   -4.6750 h1        1 MOL      0.102742
    178 H79         6.2180    5.4370   -4.0580 h1        1 MOL      0.102742
    179 H80         5.3350    3.0060   -2.7030 hn        1 MOL      0.319797
    180 Ca1         7.8300   -2.9100    1.6590 Ca        1 MOL      1.704242
    181 O27         8.2620   -3.0580    4.4270 oh        1 MOL     -0.822086
    182 H81         8.8420   -2.6190    5.0430 ho        1 MOL      0.387764
    183 H82         7.5680   -3.4210    4.9770 ho        1 MOL      0.387764
    184 O28         8.4210   -5.6260    2.4670 oh        1 MOL     -0.822086
    185 H83         7.6790   -6.2020    2.2420 ho        1 MOL      0.387764
    186 H84         9.0290   -6.1900    2.9510 ho        1 MOL      0.387764
    187 O29         9.4200   -4.0250   -0.1660 oh        1 MOL     -0.822086
    188 H85        10.3350   -3.8690    0.0240 ho        1 MOL      0.387764
    189 H86         9.4280   -4.5760   -0.9440 ho        1 MOL      0.387764
    190 O30        10.4390   -1.9250    2.1340 oh        1 MOL     -0.822086
    191 H87        11.1050   -2.3550    1.5950 ho        1 MOL      0.387764
    192 H88        10.8530   -1.8400    2.9910 ho        1 MOL      0.387764
    193 O31         7.5800   -0.6240    3.3290 oh        1 MOL     -0.822086
    194 H89         8.4040   -0.3820    3.7520 ho        1 MOL      0.387764
    195 H90         6.9780    0.0800    3.5430 ho        1 MOL      0.387764
@<TRIPOS>BOND
     1    1    2 1   
     2    1    4 1   
     3    1    5 1   
     4    1    6 1   
     5    2    3 2   
     6    2    7 1   
     7    7    8 1   
     8    7   15 1   
     9    8    9 1   
    10    8   11 1   
    11    8   16 1   
    12    9   10 2   
    13    9   19 1   
    14   11   12 1   
    15   11   17 1   
    16   11   18 1   
    17   12   13 1   
    18   12   14 1   
    19   19   20 1   
    20   19   27 1   
    21   20   21 1   
    22   20   23 1   
    23   20   28 1   
    24   21   22 2   
    25   21   38 1   
    26   23   24 1   
    27   23   25 1   
    28   23   29 1   
    29   24   26 1   
    30   24   30 1   
    31   24   31 1   
    32   25   32 1   
    33   25   33 1   
    34   25   34 1   
    35   26   35 1   
    36   26   36 1   
    37   26   37 1   
    38   38   39 1   
    39   38   46 1   
    40   39   40 1   
    41   39   42 1   
    42   39   47 1   
    43   40   41 2   
    44   40   50 1   
    45   42   43 1   
    46   42   48 1   
    47   42   49 1   
    48   43   44 1   
    49   43   45 1   
    50   50   51 1   
    51   50   54 1   
    52   51   52 1   
    53   51   55 1   
    54   51   56 1   
    55   52   53 2   
    56   52   57 1   
    57   57   58 1   
    58   57   65 1   
    59   58   59 1   
    60   58   61 1   
    61   58   66 1   
    62   59   60 2   
    63   59   69 1   
    64   61   62 1   
    65   61   67 1   
    66   61   68 1   
    67   62   63 1   
    68   62   64 1   
    69   69   70 1   
    70   69   73 1   
    71   70   71 1   
    72   70   74 1   
    73   70   75 1   
    74   71   72 2   
    75   71   76 1   
    76   76   77 1   
    77   76   85 1   
    78   77   78 1   
    79   77   80 1   
    80   77   86 1   
    81   78   79 2   
    82   78   93 1   
    83   80   81 1   
    84   80   87 1   
    85   80   88 1   
    86   81   82 1   
    87   81   89 1   
    88   81   90 1   
    89   82   83 1   
    90   82   84 2   
    91   83   91 1   
    92   83   92 1   
    93   93   94 1   
    94   93  100 1   
    95   94   95 1   
    96   94   97 1   
    97   94  101 1   
    98   95   96 2   
    99   95  109 1   
   100   97   98 1   
   101   97   99 1   
   102   97  102 1   
   103   98  103 1   
   104   98  104 1   
   105   98  105 1   
   106   99  106 1   
   107   99  107 1   
   108   99  108 1   
   109  109  110 1   
   110  109  117 1   
   111  110  111 1   
   112  110  113 1   
   113  110  118 1   
   114  111  112 2   
   115  111  123 1   
   116  113  114 1   
   117  113  119 1   
   118  113  120 1   
   119  114  115 1   
   120  114  116 2   
   121  115  121 1   
   122  115  122 1   
   123  123  124 1   
   124  123  135 1   
   125  124  125 1   
   126  124  127 1   
   127  124  136 1   
   128  125  126 2   
   129  125  144 1   
   130  127  128 1   
   131  127  137 1   
   132  127  138 1   
   133  128  129 ar  
   134  128  130 ar  
   135  129  131 ar  
   136  129  139 1   
   137  130  132 ar  
   138  130  140 1   
   139  131  133 ar  
   140  131  141 1   
   141  132  133 ar  
   142  132  142 1   
   143  133  134 1   
   144  134  143 1   
   145  144  145 1   
   146  144  153 1   
   147  145  146 1   
   148  145  148 1   
   149  145  154 1   
   150  146  147 2   
   151  146  159 1   
   152  148  149 1   
   153  148  155 1   
   154  148  156 1   
   155  149  150 1   
   156  149  157 1   
   157  149  158 1   
   158  150  151 1   
   159  150  152 1   
   160  159  160 1   
   161  159  168 1   
   162  160  161 1   
   163  160  163 1   
   164  160  169 1   
   165  161  162 2   
   166  161  174 1   
   167  163  164 1   
   168  163  170 1   
   169  163  171 1   
   170  164  165 1   
   171  164  172 1   
   172  164  173 1   
   173  165  166 1   
   174  165  167 1   
   175  174  175 1   
   176  174  179 1   
   177  175  176 1   
   178  175  177 1   
   179  175  178 1   
   180  181  182 1   
   181  181  183 1   
   182  184  185 1   
   183  184  186 1   
   184  187  188 1   
   185  187  189 1   
   186  190  191 1   
   187  190  192 1   
   188  193  194 1   
   189  193  195 1   
@<TRIPOS>SUBSTRUCTURE
     1 MOL         1 TEMP              0 ****  ****    0 ROOT
