@<TRIPOS>MOLECULE
MOL
  195   189     1     0     0
SMALL
resp


@<TRIPOS>ATOM
      1 C1         -2.4690   -2.4920    1.4270 c3        1 MOL     -0.130003
      2 C2         -1.2310   -2.6440    0.4930 c         1 MOL      0.349444
      3 O1         -0.2280   -1.9580    0.6420 o         1 MOL     -0.434719
      4 H1         -2.6820   -3.4480    1.9040 hc        1 MOL      0.013600
      5 H2         -2.2580   -1.7440    2.1910 hc        1 MOL      0.013600
      6 H3         -3.3320   -2.1800    0.8390 hc        1 MOL      0.013600
      7 N1         -1.3090   -3.7080   -0.3860 n         1 MOL     -0.293825
      8 C3         -0.3600   -4.0500   -1.3820 c3        1 MOL     -0.130543
      9 C4          1.1210   -4.2620   -0.8880 c         1 MOL      0.556646
     10 O2          2.0580   -3.9070   -1.5970 o         1 MOL     -0.408570
     11 C5         -0.5440   -3.0450   -2.5740 c3        1 MOL     -0.069983
     12 C6          0.2770   -3.3790   -3.8790 c         1 MOL      0.658069
     13 O3          1.1100   -2.5250   -4.2820 o         1 MOL     -0.581147
     14 O4         -0.0210   -4.4100   -4.5590 o         1 MOL     -0.581147
     15 H4         -2.2000   -4.1740   -0.4790 hn        1 MOL      0.271439
     16 H5         -0.7240   -4.9700   -1.8300 h1        1 MOL      0.074796
     17 H6         -0.3290   -2.0370   -2.2310 hc        1 MOL      0.027126
     18 H7         -1.6070   -3.0950   -2.7820 hc        1 MOL      0.027126
     19 N2          1.3510   -4.8250    0.3220 n         1 MOL     -0.454745
     20 C7          2.6370   -4.9380    1.0060 c3        1 MOL     -0.047326
     21 C8          3.4850   -6.0620    0.3280 c         1 MOL      0.439613
     22 O5          2.9130   -7.0250   -0.2100 o         1 MOL     -0.562345
     23 C9          2.4820   -5.2220    2.4810 c3        1 MOL      0.418153
     24 C10         1.9500   -6.5870    2.7390 c3        1 MOL     -0.003905
     25 C11         1.6280   -4.0760    3.0490 c3        1 MOL     -0.652418
     26 C12         1.8720   -6.8710    4.2430 c3        1 MOL     -0.061994
     27 H8          0.5580   -4.8440    0.9480 hn        1 MOL      0.210385
     28 H9          3.2410   -4.0330    0.8860 h1        1 MOL      0.095151
     29 H10         3.5110   -5.1740    2.8540 hc        1 MOL     -0.014261
     30 H11         2.6080   -7.3150    2.2710 hc        1 MOL      0.005440
     31 H12         0.9800   -6.7140    2.2620 hc        1 MOL      0.005440
     32 H13         0.5910   -4.0780    2.7210 hc        1 MOL      0.165905
     33 H14         1.6560   -4.1370    4.1360 hc        1 MOL      0.165905
     34 H15         2.0090   -3.1080    2.7210 hc        1 MOL      0.165905
     35 H16         2.8640   -6.7320    4.6610 hc        1 MOL     -0.010082
     36 H17         1.2270   -6.1600    4.7660 hc        1 MOL     -0.010082
     37 H18         1.4460   -7.8330    4.5470 hc        1 MOL     -0.010082
     38 N3          4.8120   -6.0540    0.3160 n         1 MOL     -0.510182
     39 C13         5.7890   -5.0600    0.8340 c3        1 MOL      0.321872
     40 C14         6.8810   -4.7650   -0.1720 c         1 MOL      0.419117
     41 O6          8.0440   -4.9380    0.1370 o         1 MOL     -0.497632
     42 C15         6.2910   -5.6780    2.1850 c3        1 MOL     -0.325124
     43 C16         7.0100   -4.5840    3.0290 c         1 MOL      0.716112
     44 O7          6.9110   -3.4020    2.7090 o         1 MOL     -0.662667
     45 O8          7.6210   -4.9730    4.0450 o         1 MOL     -0.662667
     46 H19         5.1360   -6.8340   -0.2270 hn        1 MOL      0.285203
     47 H20         5.2670   -4.1200    1.0410 h1        1 MOL     -0.024816
     48 H21         6.9160   -6.5590    2.0340 hc        1 MOL      0.071087
     49 H22         5.3820   -6.0120    2.7000 hc        1 MOL      0.071087
     50 N4          6.5380   -4.4810   -1.4290 n         1 MOL     -0.274546
     51 C17         7.4970   -4.4860   -2.5110 c3        1 MOL     -0.120207
     52 C18         8.0550   -3.0590   -2.8240 c         1 MOL      0.678711
     53 O9          9.0390   -2.9980   -3.5400 o         1 MOL     -0.586140
     54 H23         5.5670   -4.2830   -1.6420 hn        1 MOL      0.253770
     55 H24         7.0740   -4.9330   -3.4130 h1        1 MOL      0.077403
     56 H25         8.3380   -5.1250   -2.2240 h1        1 MOL      0.077403
     57 N5          7.4090   -1.9520   -2.3110 n         1 MOL     -0.603651
     58 C19         7.7280   -0.5960   -2.7490 c3        1 MOL      0.232645
     59 C20         8.3670    0.3200   -1.6310 c         1 MOL      0.378296
     60 O10         9.1510    1.2000   -1.9380 o         1 MOL     -0.502486
     61 C21         6.5380    0.1060   -3.3680 c3        1 MOL      0.056859
     62 C22         5.3710    0.2950   -2.4480 c         1 MOL      0.573694
     63 O11         4.4220   -0.5330   -2.4770 o         1 MOL     -0.570056
     64 O12         5.3420    1.3340   -1.7360 o         1 MOL     -0.570056
     65 H26         6.5700   -2.0820   -1.7710 hn        1 MOL      0.234855
     66 H27         8.4570   -0.5910   -3.5550 h1        1 MOL      0.030003
     67 H28         6.2570   -0.4170   -4.2730 hc        1 MOL     -0.021016
     68 H29         6.9240    1.0890   -3.6160 hc        1 MOL     -0.021016
     69 N6          7.9020    0.2270   -0.3400 n         1 MOL     -0.227512
     70 C23         8.4170    1.0540    0.7960 c3        1 MOL     -0.370481
     71 C24         7.8800    2.4710    0.8460 c         1 MOL      0.619350
     72 O13         8.3860    3.2360    1.5660 o         1 MOL     -0.602186
     73 H30         7.2840   -0.5310   -0.0580 hn        1 MOL      0.287564
     74 H31         9.5040    1.0580    0.7390 h1        1 MOL      0.162803
     75 H32         8.0990    0.5380    1.6980 h1        1 MOL      0.162803
     76 N7          6.9110    2.8110   -0.0290 n         1 MOL      0.009172
     77 C25         6.3600    4.1870   -0.2770 c3        1 MOL     -0.038001
     78 C26         5.7080    4.8430    0.9600 c         1 MOL      0.532972
     79 O14         5.7570    6.0850    1.0740 o         1 MOL     -0.543109
     80 C27         7.4220    4.9550   -1.0130 c3        1 MOL      0.034815
     81 C28         7.5750    4.2370   -2.4230 c3        1 MOL     -0.079333
     82 C29         8.9220    4.6390   -3.0730 c         1 MOL      0.602435
     83 N8          9.9750    3.9430   -2.7900 n         1 MOL     -0.701475
     84 O15         8.9960    5.6060   -3.8030 o         1 MOL     -0.623273
     85 H33         6.4930    2.0650   -0.5690 hn        1 MOL     -0.107061
     86 H34         5.5570    4.1120   -1.0070 h1        1 MOL      0.091197
     87 H35         8.3160    4.8720   -0.4030 hc        1 MOL      0.011994
     88 H36         7.1540    6.0050   -1.1830 hc        1 MOL      0.011994
     89 H37         6.7780    4.5640   -3.0910 hc        1 MOL      0.028677
     90 H38         7.6270    3.1420   -2.3930 hc        1 MOL      0.028677
     91 H39         9.9430    3.0270   -2.3550 hn        1 MOL      0.317286
     92 H40        10.8820    4.3190   -3.0390 hn        1 MOL      0.317286
     93 N9          5.0760    4.0290    1.7820 n         1 MOL     -0.475268
     94 C30         4.4100    4.5290    2.9460 c3        1 MOL     -0.032279
     95 C31         2.9210    4.0920    3.0940 c         1 MOL      0.559471
     96 O16         2.2870    4.4200    4.0760 o         1 MOL     -0.572104
     97 C32         5.1540    4.0330    4.1760 c3        1 MOL      0.266634
     98 C33         5.3580    2.4840    4.2010 c3        1 MOL     -0.376445
     99 C34         6.5690    4.6430    4.2460 c3        1 MOL     -0.376445
    100 H41         4.9970    3.0650    1.5140 hn        1 MOL      0.313947
    101 H42         4.3910    5.6120    2.9590 h1        1 MOL      0.098963
    102 H43         4.6090    4.3290    5.0730 hc        1 MOL     -0.029722
    103 H44         4.3660    2.0490    4.1530 hc        1 MOL      0.091947
    104 H45         5.8340    2.1470    3.2740 hc        1 MOL      0.091947
    105 H46         5.9430    2.0640    5.0250 hc        1 MOL      0.091947
    106 H47         7.0460    4.2680    5.1540 hc        1 MOL      0.091947
    107 H48         7.2430    4.4010    3.4190 hc        1 MOL      0.091947
    108 H49         6.5390    5.7340    4.2170 hc        1 MOL      0.091947
    109 N10         2.4450    3.2450    2.1750 n         1 MOL     -0.497277
    110 C35         1.0730    2.7120    2.2750 c3        1 MOL      0.245305
    111 C36         0.4080    2.5620    0.8770 c         1 MOL      0.526727
    112 O17         1.0820    2.5180   -0.1550 o         1 MOL     -0.508125
    113 C37         1.1340    1.3890    3.0320 c3        1 MOL     -0.017044
    114 C38        -0.1490    1.1630    3.8580 c         1 MOL      0.537996
    115 N11        -0.0100    0.4120    4.9380 n         1 MOL     -0.743644
    116 O18        -1.2300    1.6400    3.5750 o         1 MOL     -0.484663
    117 H50         3.0510    2.8620    1.4620 hn        1 MOL      0.246516
    118 H51         0.4980    3.4180    2.8810 h1        1 MOL      0.028495
    119 H52         1.9670    1.3130    3.7350 hc        1 MOL      0.019871
    120 H53         1.2350    0.5430    2.3370 hc        1 MOL      0.019871
    121 H54         0.8940    0.0190    5.1250 hn        1 MOL      0.345363
    122 H55        -0.6760    0.4120    5.6950 hn        1 MOL      0.345363
    123 N12        -0.9390    2.5050    0.8740 n         1 MOL     -0.570261
    124 C39        -1.7120    2.2970   -0.3190 c3        1 MOL      0.053430
    125 C40        -3.0850    3.0080   -0.0760 c         1 MOL      0.791282
    126 O19        -3.6860    2.8170    0.9770 o         1 MOL     -0.662875
    127 C41        -1.8260    0.7730   -0.6710 c3        1 MOL     -0.345045
    128 C42        -2.7500    0.3510   -1.8050 ca        1 MOL     -0.044289
    129 C43        -4.0520   -0.1070   -1.5220 ca        1 MOL     -0.026109
    130 C44        -2.4060    0.6530   -3.1600 ca        1 MOL     -0.026109
    131 C45        -4.9530   -0.5520   -2.5140 ca        1 MOL     -0.396952
    132 C46        -3.3380    0.2150   -4.1360 ca        1 MOL     -0.396952
    133 C47        -4.5600   -0.3440   -3.7930 ca        1 MOL      0.483421
    134 O20        -5.4390   -0.6900   -4.7800 oh        1 MOL     -0.596755
    135 H56        -1.3990    2.3900    1.7720 hn        1 MOL      0.280282
    136 H57        -1.3400    2.7830   -1.2220 h1        1 MOL      0.076776
    137 H58        -1.9830    0.1900    0.2360 hc        1 MOL      0.215815
    138 H59        -0.7980    0.4530   -0.8420 hc        1 MOL      0.215815
    139 H60        -4.3340   -0.2110   -0.4870 ha        1 MOL      0.153074
    140 H61        -1.4720    1.1340   -3.4360 ha        1 MOL      0.153074
    141 H62        -5.9230   -0.9920   -2.3110 ha        1 MOL      0.180871
    142 H63        -3.1970    0.3710   -5.1970 ha        1 MOL      0.180871
    143 H64        -6.2170   -1.1540   -4.4720 ho        1 MOL      0.425274
    144 N13        -3.6800    3.6900   -1.0750 n         1 MOL     -0.773438
    145 C48        -5.0640    4.1970   -0.8600 c3        1 MOL      0.345006
    146 C49        -6.1590    3.4140   -1.6590 c         1 MOL      0.751614
    147 O21        -6.3960    3.5960   -2.8190 o         1 MOL     -0.564632
    148 C50        -4.9770    5.7000   -1.2170 c3        1 MOL      0.323269
    149 C51        -6.3660    6.3550   -0.9380 c3        1 MOL     -0.420466
    150 C52        -6.4380    7.7890   -1.4810 c         1 MOL      0.760263
    151 O22        -7.2680    8.5160   -0.8860 o         1 MOL     -0.662680
    152 O23        -5.7120    8.1930   -2.4010 o         1 MOL     -0.662680
    153 H65        -3.2600    3.7810   -1.9890 hn        1 MOL      0.343363
    154 H66        -5.3850    4.1820    0.1840 h1        1 MOL     -0.037571
    155 H67        -4.6710    5.7580   -2.2650 hc        1 MOL     -0.085155
    156 H68        -4.2100    6.1380   -0.5900 hc        1 MOL     -0.085155
    157 H69        -6.5950    6.2440    0.1250 hc        1 MOL      0.092308
    158 H70        -7.1580    5.9120   -1.5430 hc        1 MOL      0.092308
    159 N14        -6.8790    2.4970   -1.0370 n         1 MOL     -1.085784
    160 C53        -6.7620    1.9780    0.3690 c3        1 MOL      0.880441
    161 C54        -7.2420    2.9840    1.5000 c         1 MOL      0.459850
    162 O24        -8.1040    3.8810    1.3520 o         1 MOL     -0.548686
    163 C55        -7.4900    0.6570    0.3680 c3        1 MOL     -0.369368
    164 C56        -8.9720    0.8390    0.2670 c3        1 MOL     -0.503066
    165 C57        -9.7850   -0.5120    0.3520 c         1 MOL      0.870293
    166 O25        -9.5410   -1.4040    1.1680 o         1 MOL     -0.678357
    167 O26       -10.6940   -0.7620   -0.5180 o         1 MOL     -0.678357
    168 H71        -7.5630    1.9620   -1.5460 hn        1 MOL      0.440415
    169 H72        -5.7020    1.7610    0.5400 h1        1 MOL     -0.094183
    170 H73        -7.3420    0.1480    1.3200 hc        1 MOL      0.009966
    171 H74        -7.2650   -0.0160   -0.4510 hc        1 MOL      0.009966
    172 H75        -9.2460    1.3300   -0.6690 hc        1 MOL      0.139325
    173 H76        -9.3620    1.4960    1.0470 hc        1 MOL      0.139325
    174 N15        -6.7710    2.7560    2.7230 n         1 MOL     -0.228463
    175 C58        -6.9900    3.5360    3.9950 c3        1 MOL     -0.558232
    176 H77        -7.2820    4.5570    3.7500 h1        1 MOL      0.191751
    177 H78        -7.7800    3.0640    4.5790 h1        1 MOL      0.191751
    178 H79        -6.0670    3.5510    4.5760 h1        1 MOL      0.191751
    179 H80        -6.0640    2.0340    2.8170 hn        1 MOL      0.232329
    180 Ca1       -11.3810   -3.1580    0.5190 Ca        1 MOL      1.491909
    181 O27       -10.6260   -3.4930   -2.0890 oh        1 MOL     -0.827267
    182 H81       -10.8430   -4.3160   -2.5330 ho        1 MOL      0.340497
    183 H82       -10.7630   -2.8210   -2.7540 ho        1 MOL      0.340497
    184 O28       -11.3800   -6.0350   -0.6060 oh        1 MOL     -0.827267
    185 H83       -11.4970   -5.7930   -1.5310 ho        1 MOL      0.340497
    186 H84       -12.0810   -6.6650   -0.4340 ho        1 MOL      0.340497
    187 O29       -13.5600   -2.7870   -1.1350 oh        1 MOL     -0.827267
    188 H85       -14.3570   -2.8030   -0.6030 ho        1 MOL      0.340497
    189 H86       -13.7590   -3.3520   -1.8870 ho        1 MOL      0.340497
    190 O30       -13.1090   -4.7220    1.8500 oh        1 MOL     -0.827267
    191 H87       -13.6560   -4.3700    2.5540 ho        1 MOL      0.340497
    192 H88       -13.4020   -5.6280    1.7350 ho        1 MOL      0.340497
    193 O31       -13.0970   -1.6160    1.7900 oh        1 MOL     -0.827267
    194 H89       -13.6550   -0.8790    1.5550 ho        1 MOL      0.340497
    195 H90       -13.4440   -1.9390    2.6210 ho        1 MOL      0.340497
@<TRIPOS>BOND
     1    1    2 1   
     2    1    4 1   
     3    1    5 1   
     4    1    6 1   
     5    2    3 2   
     6    2    7 1   
     7    7    8 1   
     8    7   15 1   
     9    8    9 1   
    10    8   11 1   
    11    8   16 1   
    12    9   10 2   
    13    9   19 1   
    14   11   12 1   
    15   11   17 1   
    16   11   18 1   
    17   12   13 1   
    18   12   14 1   
    19   19   20 1   
    20   19   27 1   
    21   20   21 1   
    22   20   23 1   
    23   20   28 1   
    24   21   22 2   
    25   21   38 1   
    26   23   24 1   
    27   23   25 1   
    28   23   29 1   
    29   24   26 1   
    30   24   30 1   
    31   24   31 1   
    32   25   32 1   
    33   25   33 1   
    34   25   34 1   
    35   26   35 1   
    36   26   36 1   
    37   26   37 1   
    38   38   39 1   
    39   38   46 1   
    40   39   40 1   
    41   39   42 1   
    42   39   47 1   
    43   40   41 2   
    44   40   50 1   
    45   42   43 1   
    46   42   48 1   
    47   42   49 1   
    48   43   44 1   
    49   43   45 1   
    50   50   51 1   
    51   50   54 1   
    52   51   52 1   
    53   51   55 1   
    54   51   56 1   
    55   52   53 2   
    56   52   57 1   
    57   57   58 1   
    58   57   65 1   
    59   58   59 1   
    60   58   61 1   
    61   58   66 1   
    62   59   60 2   
    63   59   69 1   
    64   61   62 1   
    65   61   67 1   
    66   61   68 1   
    67   62   63 1   
    68   62   64 1   
    69   69   70 1   
    70   69   73 1   
    71   70   71 1   
    72   70   74 1   
    73   70   75 1   
    74   71   72 2   
    75   71   76 1   
    76   76   77 1   
    77   76   85 1   
    78   77   78 1   
    79   77   80 1   
    80   77   86 1   
    81   78   79 2   
    82   78   93 1   
    83   80   81 1   
    84   80   87 1   
    85   80   88 1   
    86   81   82 1   
    87   81   89 1   
    88   81   90 1   
    89   82   83 1   
    90   82   84 2   
    91   83   91 1   
    92   83   92 1   
    93   93   94 1   
    94   93  100 1   
    95   94   95 1   
    96   94   97 1   
    97   94  101 1   
    98   95   96 2   
    99   95  109 1   
   100   97   98 1   
   101   97   99 1   
   102   97  102 1   
   103   98  103 1   
   104   98  104 1   
   105   98  105 1   
   106   99  106 1   
   107   99  107 1   
   108   99  108 1   
   109  109  110 1   
   110  109  117 1   
   111  110  111 1   
   112  110  113 1   
   113  110  118 1   
   114  111  112 2   
   115  111  123 1   
   116  113  114 1   
   117  113  119 1   
   118  113  120 1   
   119  114  115 1   
   120  114  116 2   
   121  115  121 1   
   122  115  122 1   
   123  123  124 1   
   124  123  135 1   
   125  124  125 1   
   126  124  127 1   
   127  124  136 1   
   128  125  126 2   
   129  125  144 1   
   130  127  128 1   
   131  127  137 1   
   132  127  138 1   
   133  128  129 ar  
   134  128  130 ar  
   135  129  131 ar  
   136  129  139 1   
   137  130  132 ar  
   138  130  140 1   
   139  131  133 ar  
   140  131  141 1   
   141  132  133 ar  
   142  132  142 1   
   143  133  134 1   
   144  134  143 1   
   145  144  145 1   
   146  144  153 1   
   147  145  146 1   
   148  145  148 1   
   149  145  154 1   
   150  146  147 2   
   151  146  159 1   
   152  148  149 1   
   153  148  155 1   
   154  148  156 1   
   155  149  150 1   
   156  149  157 1   
   157  149  158 1   
   158  150  151 1   
   159  150  152 1   
   160  159  160 1   
   161  159  168 1   
   162  160  161 1   
   163  160  163 1   
   164  160  169 1   
   165  161  162 2   
   166  161  174 1   
   167  163  164 1   
   168  163  170 1   
   169  163  171 1   
   170  164  165 1   
   171  164  172 1   
   172  164  173 1   
   173  165  166 1   
   174  165  167 1   
   175  174  175 1   
   176  174  179 1   
   177  175  176 1   
   178  175  177 1   
   179  175  178 1   
   180  181  182 1   
   181  181  183 1   
   182  184  185 1   
   183  184  186 1   
   184  187  188 1   
   185  187  189 1   
   186  190  191 1   
   187  190  192 1   
   188  193  194 1   
   189  193  195 1   
@<TRIPOS>SUBSTRUCTURE
     1 MOL         1 TEMP              0 ****  ****    0 ROOT
