@<TRIPOS>MOLECULE
MOL
  181   177     1     0     0
SMALL
resp


@<TRIPOS>ATOM
      1 C1          0.3310    7.1540   -2.7680 c3        1 MOL     -0.493212
      2 C2          1.5540    6.8350   -1.8320 c         1 MOL      0.719687
      3 O1          1.4670    7.1590   -0.6570 o         1 MOL     -0.585114
      4 H1         -0.4620    6.4280   -2.5870 hc        1 MOL      0.112275
      5 H2         -0.0390    8.1560   -2.5540 hc        1 MOL      0.112275
      6 H3          0.6450    7.0960   -3.8100 hc        1 MOL      0.112275
      7 N1          2.5550    6.2320   -2.3850 n         1 MOL     -0.474562
      8 C3          3.7760    6.0350   -1.5830 c3        1 MOL     -0.164101
      9 C4          3.6500    4.9770   -0.4910 c         1 MOL      0.580504
     10 O2          3.2660    3.8720   -0.8070 o         1 MOL     -0.491586
     11 C5          4.8730    5.6420   -2.5790 c3        1 MOL     -0.070897
     12 C6          6.3140    5.6290   -1.9200 c         1 MOL      0.596317
     13 O3          6.9340    4.5490   -2.0340 o         1 MOL     -0.691313
     14 O4          6.6570    6.6670   -1.2580 o         1 MOL     -0.691313
     15 H4          2.5540    5.8950   -3.3350 hn        1 MOL      0.301917
     16 H5          3.9250    7.0060   -1.1120 h1        1 MOL      0.107073
     17 H6          4.8810    6.3180   -3.4460 hc        1 MOL      0.019821
     18 H7          4.6840    4.6830   -3.0640 hc        1 MOL      0.019821
     19 N2          4.1670    5.2680    0.7340 n         1 MOL     -0.585031
     20 C7          4.4090    4.2730    1.7690 c3        1 MOL      0.689479
     21 C8          3.1130    3.6800    2.3790 c         1 MOL      0.222529
     22 O5          2.0990    4.3530    2.3230 o         1 MOL     -0.506113
     23 C9          5.2800    4.9180    2.8190 c3        1 MOL     -0.231193
     24 H8          4.4490    6.2110    0.9690 hn        1 MOL      0.301439
     25 H9          4.9590    3.4080    1.3940 h1        1 MOL     -0.065167
     26 H10         5.4720    4.3150    3.7110 hc        1 MOL      0.038255
     27 H11         6.2600    5.0460    2.3710 hc        1 MOL      0.038255
     28 H12         4.9170    5.9240    3.0220 hc        1 MOL      0.038255
     29 N3          3.1880    2.5500    3.1360 n         1 MOL     -0.316606
     30 C10         4.3240    1.6360    3.2910 c3        1 MOL     -0.152034
     31 C11         4.5110    0.6620    2.0810 c         1 MOL      0.469090
     32 O6          3.5690    0.2370    1.4360 o         1 MOL     -0.505819
     33 C12         4.1820    0.9050    4.6830 c3        1 MOL     -0.118909
     34 C13         2.9970   -0.0460    4.7580 c         1 MOL      0.658239
     35 O7          2.1820   -0.0180    3.8110 o         1 MOL     -0.676875
     36 O8          2.9150   -0.7410    5.7810 o         1 MOL     -0.676875
     37 H13         2.3280    2.1410    3.4450 hn        1 MOL      0.275177
     38 H14         5.2020    2.2770    3.2070 h1        1 MOL      0.072592
     39 H15         4.0600    1.7210    5.4040 hc        1 MOL      0.035929
     40 H16         5.0940    0.3850    4.9890 hc        1 MOL      0.035929
     41 N4          5.7380    0.1460    1.8980 n         1 MOL     -0.237159
     42 C14         6.0870   -0.9490    1.0070 c3        1 MOL      0.011907
     43 C15         7.5690   -0.8950    0.4390 c         1 MOL      0.552518
     44 O9          8.3220    0.0950    0.5170 o         1 MOL     -0.481923
     45 H17         6.5060    0.5890    2.3870 hn        1 MOL      0.196012
     46 H18         5.3770   -0.9410    0.1770 h1        1 MOL      0.031371
     47 H19         5.9460   -1.9190    1.4760 h1        1 MOL      0.031371
     48 N5          8.0320   -1.9560   -0.3180 n         1 MOL     -0.566688
     49 C16         7.2500   -3.0910   -0.7510 c3        1 MOL      0.071102
     50 C17         6.2490   -2.6450   -1.8120 c         1 MOL      0.715525
     51 O10         6.3430   -1.5990   -2.4260 o         1 MOL     -0.465087
     52 C18         8.2070   -4.1920   -1.2240 c3        1 MOL     -0.281346
     53 C19         8.8270   -4.0640   -2.6340 c         1 MOL      0.591635
     54 N6          8.3630   -4.9500   -3.4860 n         1 MOL     -0.742524
     55 O11         9.5710   -3.1740   -2.9980 o         1 MOL     -0.489202
     56 H20         8.8740   -1.8160   -0.8600 hn        1 MOL      0.315415
     57 H21         6.8070   -3.4710    0.1690 h1        1 MOL      0.078876
     58 H22         7.6930   -5.1450   -1.1150 hc        1 MOL      0.068345
     59 H23         9.0170   -4.1550   -0.4860 hc        1 MOL      0.068345
     60 H24         7.7280   -5.6330   -3.0840 hn        1 MOL      0.359740
     61 H25         8.6040   -4.9250   -4.4610 hn        1 MOL      0.359740
     62 N7          5.2740   -3.5470   -1.8950 n         1 MOL     -0.580232
     63 C20         4.0940   -3.3730   -2.7680 c3        1 MOL     -0.313208
     64 C21         2.7450   -3.9850   -2.3520 c         1 MOL      0.710307
     65 O12         1.8720   -3.9610   -3.1870 o         1 MOL     -0.592872
     66 H26         5.2860   -4.3480   -1.2820 hn        1 MOL      0.317505
     67 H27         4.3380   -3.8900   -3.6980 h1        1 MOL      0.171162
     68 H28         3.8850   -2.3080   -2.8910 h1        1 MOL      0.171162
     69 N8          2.5570   -4.4800   -1.1470 n         1 MOL     -0.437126
     70 C22         1.2820   -5.0480   -0.7260 c3        1 MOL     -0.124810
     71 C23         0.1430   -4.0160   -0.6040 c         1 MOL      0.622834
     72 O13         0.3250   -2.8720   -0.1750 o         1 MOL     -0.629486
     73 C24         1.3950   -5.9430    0.4570 c3        1 MOL      0.576828
     74 C25         2.0620   -7.3270    0.1760 c3        1 MOL     -0.450540
     75 O14         2.0680   -5.3380    1.5110 oh        1 MOL     -0.672525
     76 H29         3.3220   -4.5810   -0.5010 hn        1 MOL      0.221946
     77 H30         1.0330   -5.6940   -1.5800 h1        1 MOL      0.071492
     78 H31         0.3620   -6.1180    0.7200 h1        1 MOL     -0.033546
     79 H32         1.6820   -5.7930    2.2680 ho        1 MOL      0.452045
     80 H33         1.8920   -7.8650    1.1110 hc        1 MOL      0.098745
     81 H34         1.5990   -7.8650   -0.6480 hc        1 MOL      0.098745
     82 H35         3.1220   -7.2400   -0.0350 hc        1 MOL      0.098745
     83 N9         -1.0590   -4.4270   -1.0020 n         1 MOL     -0.378440
     84 C26        -2.2340   -3.5510   -0.8990 c3        1 MOL     -0.113593
     85 C27        -2.7980   -3.5620    0.4910 c         1 MOL      0.751334
     86 O15        -3.0740   -4.6210    1.0230 o         1 MOL     -0.609668
     87 C28        -3.1480   -3.9740   -2.0050 c3        1 MOL      0.179158
     88 C29        -4.4590   -3.2060   -1.9070 c3        1 MOL     -0.030174
     89 C30        -2.4690   -3.9540   -3.4230 c3        1 MOL     -0.121851
     90 C31        -5.6570   -3.6640   -2.8320 c3        1 MOL     -0.210612
     91 H36        -1.1560   -5.4010   -1.2570 hn        1 MOL      0.236398
     92 H37        -2.0000   -2.5020   -1.1020 h1        1 MOL      0.114308
     93 H38        -3.3190   -5.0280   -1.8370 hc        1 MOL     -0.024852
     94 H39        -4.1350   -2.2000   -2.1580 hc        1 MOL      0.037025
     95 H40        -4.7880   -3.2690   -0.8690 hc        1 MOL      0.037025
     96 H41        -1.5110   -4.4580   -3.5790 hc        1 MOL      0.026566
     97 H42        -3.1400   -4.4460   -4.1320 hc        1 MOL      0.026566
     98 H43        -2.2720   -2.9280   -3.7250 hc        1 MOL      0.026566
     99 H44        -5.9640   -4.6690   -2.5430 hc        1 MOL      0.043364
    100 H45        -6.4850   -2.9720   -2.6530 hc        1 MOL      0.043364
    101 H46        -5.4380   -3.5870   -3.9000 hc        1 MOL      0.043364
    102 N10        -3.0800   -2.3820    1.0870 n         1 MOL     -0.657148
    103 C32        -3.6280   -2.3420    2.4830 c3        1 MOL      0.085756
    104 C33        -4.9040   -1.4920    2.5400 c         1 MOL      0.340429
    105 O16        -5.7240   -1.7060    3.4370 o         1 MOL     -0.552025
    106 C34        -2.6790   -1.8570    3.5260 c3        1 MOL     -0.160880
    107 C35        -1.2350   -2.4190    3.4490 c         1 MOL      0.786144
    108 O17        -0.9390   -3.6110    3.6060 o         1 MOL     -0.727795
    109 O18        -0.2550   -1.6360    3.3000 o         1 MOL     -0.727795
    110 H47        -2.9350   -1.4930    0.6330 hn        1 MOL      0.399276
    111 H48        -3.9110   -3.3330    2.8310 h1        1 MOL      0.113220
    112 H49        -2.9950   -2.2220    4.5060 hc        1 MOL      0.027340
    113 H50        -2.6580   -0.7680    3.5710 hc        1 MOL      0.027340
    114 N11        -5.1560   -0.7280    1.4540 n         1 MOL     -0.059062
    115 C36        -6.4500   -0.1510    1.0920 c3        1 MOL      0.303491
    116 C37        -6.1820    1.2980    0.4830 c         1 MOL      0.198116
    117 O19        -6.7540    1.7500   -0.5140 o         1 MOL     -0.445620
    118 C38        -7.1870   -1.0870    0.0840 c3        1 MOL     -0.317661
    119 C39        -8.6850   -0.9750   -0.0110 ca        1 MOL      0.229457
    120 C40        -9.3790   -2.0870   -0.5380 ca        1 MOL     -0.204588
    121 C41        -9.4130    0.1340    0.4360 ca        1 MOL     -0.204588
    122 C42       -10.7890   -2.0140   -0.7020 ca        1 MOL     -0.089533
    123 C43       -10.8100    0.1390    0.4700 ca        1 MOL     -0.089533
    124 C44       -11.4980   -0.9130   -0.1850 ca        1 MOL     -0.185767
    125 H51        -4.4650   -0.6980    0.7190 hn        1 MOL      0.139145
    126 H52        -7.1040   -0.1300    1.9630 h1        1 MOL      0.000190
    127 H53        -6.8770   -2.1180    0.2690 hc        1 MOL      0.097545
    128 H54        -6.8070   -0.8020   -0.8990 hc        1 MOL      0.097545
    129 H55        -8.8800   -2.9610   -0.9290 ha        1 MOL      0.121520
    130 H56        -8.8820    0.9940    0.8110 ha        1 MOL      0.121520
    131 H57       -11.2630   -2.8290   -1.2350 ha        1 MOL      0.103991
    132 H58       -11.3460    0.9340    0.9720 ha        1 MOL      0.103991
    133 H59       -12.5720   -0.8330   -0.2360 ha        1 MOL      0.110702
    134 N12        -5.3350    2.1610    1.1340 n         1 MOL      0.052188
    135 C45        -5.0370    3.5340    0.6300 c3        1 MOL     -0.019000
    136 C46        -4.5800    3.6620   -0.8160 c         1 MOL      0.302474
    137 O20        -4.8600    4.6790   -1.4480 o         1 MOL     -0.507742
    138 C47        -4.2320    4.1630    1.7710 c3        1 MOL      0.098067
    139 C48        -4.5830    3.3870    3.0260 c3        1 MOL     -0.064949
    140 C49        -4.8280    1.9770    2.4470 c3        1 MOL     -0.167896
    141 H60        -6.0070    4.0420    0.6600 h1        1 MOL      0.064179
    142 H61        -3.1710    4.0200    1.5350 hc        1 MOL     -0.005651
    143 H62        -4.5140    5.2030    1.9060 hc        1 MOL     -0.005651
    144 H63        -3.7850    3.5380    3.7500 hc        1 MOL      0.043889
    145 H64        -5.4470    3.8620    3.4980 hc        1 MOL      0.043889
    146 H65        -3.8350    1.5510    2.3030 h1        1 MOL      0.053460
    147 H66        -5.5830    1.3590    2.9240 h1        1 MOL      0.053460
    148 N13        -4.0530    2.6130   -1.3700 n         1 MOL     -0.019382
    149 C50        -3.7050    2.5080   -2.7760 c3        1 MOL     -0.204175
    150 C51        -4.9070    2.4600   -3.7100 c         1 MOL      0.545285
    151 O21        -4.9340    3.0170   -4.7830 o         1 MOL     -0.555420
    152 C52        -2.8120    1.2680   -2.9450 c3        1 MOL     -0.032892
    153 C53        -1.7130    1.0130   -1.9020 c3        1 MOL     -0.024058
    154 C54        -2.1150    0.2450   -0.6320 c         1 MOL      0.700247
    155 O22        -1.3000   -0.0610    0.2750 o         1 MOL     -0.786295
    156 O23        -3.3270   -0.1470   -0.5080 o         1 MOL     -0.786295
    157 H67        -3.8840    1.8480   -0.7260 hn        1 MOL      0.137888
    158 H68        -3.1260    3.3770   -3.0740 h1        1 MOL      0.118838
    159 H69        -2.3930    1.4060   -3.9480 hc        1 MOL      0.020542
    160 H70        -3.3890    0.3440   -2.9950 hc        1 MOL      0.020542
    161 H71        -1.2430    1.9420   -1.5640 hc        1 MOL      0.014582
    162 H72        -0.8960    0.4350   -2.3340 hc        1 MOL      0.014582
    163 N14        -5.9750    1.8740   -3.1720 n         1 MOL     -0.206899
    164 C55        -7.2710    1.8640   -3.8100 c3        1 MOL     -0.145328
    165 H73        -7.7420    0.8920   -3.6610 h1        1 MOL      0.070154
    166 H74        -7.8980    2.6420   -3.3730 h1        1 MOL      0.070154
    167 H75        -7.1520    2.0500   -4.8780 h1        1 MOL      0.070154
    168 H76        -5.8860    1.5550   -2.2270 hn        1 MOL      0.187647
    169 Ca1         0.8870   -0.3010    1.4890 Ca        1 MOL      1.750315
    170 O24         1.3780   -0.8200   -1.5260 oh        1 MOL     -0.801697
    171 H77         1.2160   -0.8650   -2.4670 ho        1 MOL      0.402470
    172 H78         0.7840   -1.4610   -1.1500 ho        1 MOL      0.402470
    173 O25        -0.4940    1.7230    2.6120 oh        1 MOL     -0.801697
    174 H79        -1.0530    1.6940    3.3880 ho        1 MOL      0.402470
    175 H80        -0.9500    2.3110    2.0090 ho        1 MOL      0.402470
    176 O26         2.4520   -2.4550    1.6350 oh        1 MOL     -0.801697
    177 H81         2.1050   -3.3380    1.4970 ho        1 MOL      0.402470
    178 H82         3.3880   -2.5340    1.4610 ho        1 MOL      0.402470
    179 O27         1.2280    1.8510    0.0530 oh        1 MOL     -0.801697
    180 H83         0.4980    2.4510    0.2290 ho        1 MOL      0.402470
    181 H84         1.7340    2.2950   -0.6260 ho        1 MOL      0.402470
@<TRIPOS>BOND
     1    1    2 1   
     2    1    4 1   
     3    1    5 1   
     4    1    6 1   
     5    2    3 2   
     6    2    7 1   
     7    7    8 1   
     8    7   15 1   
     9    8    9 1   
    10    8   11 1   
    11    8   16 1   
    12    9   10 2   
    13    9   19 1   
    14   11   12 1   
    15   11   17 1   
    16   11   18 1   
    17   12   13 1   
    18   12   14 1   
    19   19   20 1   
    20   19   24 1   
    21   20   21 1   
    22   20   23 1   
    23   20   25 1   
    24   21   22 2   
    25   21   29 1   
    26   23   26 1   
    27   23   27 1   
    28   23   28 1   
    29   29   30 1   
    30   29   37 1   
    31   30   31 1   
    32   30   33 1   
    33   30   38 1   
    34   31   32 2   
    35   31   41 1   
    36   33   34 1   
    37   33   39 1   
    38   33   40 1   
    39   34   35 1   
    40   34   36 1   
    41   41   42 1   
    42   41   45 1   
    43   42   43 1   
    44   42   46 1   
    45   42   47 1   
    46   43   44 2   
    47   43   48 1   
    48   48   49 1   
    49   48   56 1   
    50   49   50 1   
    51   49   52 1   
    52   49   57 1   
    53   50   51 2   
    54   50   62 1   
    55   52   53 1   
    56   52   58 1   
    57   52   59 1   
    58   53   54 1   
    59   53   55 2   
    60   54   60 1   
    61   54   61 1   
    62   62   63 1   
    63   62   66 1   
    64   63   64 1   
    65   63   67 1   
    66   63   68 1   
    67   64   65 2   
    68   64   69 1   
    69   69   70 1   
    70   69   76 1   
    71   70   71 1   
    72   70   73 1   
    73   70   77 1   
    74   71   72 2   
    75   71   83 1   
    76   73   74 1   
    77   73   75 1   
    78   73   78 1   
    79   74   80 1   
    80   74   81 1   
    81   74   82 1   
    82   75   79 1   
    83   83   84 1   
    84   83   91 1   
    85   84   85 1   
    86   84   87 1   
    87   84   92 1   
    88   85   86 2   
    89   85  102 1   
    90   87   88 1   
    91   87   89 1   
    92   87   93 1   
    93   88   90 1   
    94   88   94 1   
    95   88   95 1   
    96   89   96 1   
    97   89   97 1   
    98   89   98 1   
    99   90   99 1   
   100   90  100 1   
   101   90  101 1   
   102  102  103 1   
   103  102  110 1   
   104  103  104 1   
   105  103  106 1   
   106  103  111 1   
   107  104  105 2   
   108  104  114 1   
   109  106  107 1   
   110  106  112 1   
   111  106  113 1   
   112  107  108 1   
   113  107  109 1   
   114  114  115 1   
   115  114  125 1   
   116  115  116 1   
   117  115  118 1   
   118  115  126 1   
   119  116  117 2   
   120  116  134 1   
   121  118  119 1   
   122  118  127 1   
   123  118  128 1   
   124  119  120 ar  
   125  119  121 ar  
   126  120  122 ar  
   127  120  129 1   
   128  121  123 ar  
   129  121  130 1   
   130  122  124 ar  
   131  122  131 1   
   132  123  124 ar  
   133  123  132 1   
   134  124  133 1   
   135  134  135 1   
   136  134  140 1   
   137  135  136 1   
   138  135  138 1   
   139  135  141 1   
   140  136  137 2   
   141  136  148 1   
   142  138  139 1   
   143  138  142 1   
   144  138  143 1   
   145  139  140 1   
   146  139  144 1   
   147  139  145 1   
   148  140  146 1   
   149  140  147 1   
   150  148  149 1   
   151  148  157 1   
   152  149  150 1   
   153  149  152 1   
   154  149  158 1   
   155  150  151 2   
   156  150  163 1   
   157  152  153 1   
   158  152  159 1   
   159  152  160 1   
   160  153  154 1   
   161  153  161 1   
   162  153  162 1   
   163  154  155 1   
   164  154  156 1   
   165  163  164 1   
   166  163  168 1   
   167  164  165 1   
   168  164  166 1   
   169  164  167 1   
   170  170  171 1   
   171  170  172 1   
   172  173  174 1   
   173  173  175 1   
   174  176  177 1   
   175  176  178 1   
   176  179  180 1   
   177  179  181 1   
@<TRIPOS>SUBSTRUCTURE
     1 MOL         1 TEMP              0 ****  ****    0 ROOT
