@<TRIPOS>MOLECULE
MOL
  192   187     1     0     0
SMALL
resp


@<TRIPOS>ATOM
      1 C1          5.7240    4.4710   -3.1720 c3        1 MOL     -0.318705
      2 C2          5.9810    3.3150   -2.2060 c         1 MOL      0.803343
      3 O1          5.0410    3.0230   -1.4410 o         1 MOL     -0.751090
      4 H1          4.6710    4.7540   -3.1260 hc        1 MOL      0.073982
      5 H2          6.3410    5.3250   -2.8910 hc        1 MOL      0.073982
      6 H3          5.9720    4.1600   -4.1870 hc        1 MOL      0.073982
      7 N1          7.0480    2.5810   -2.4060 n         1 MOL     -0.637966
      8 C3          7.3000    1.2530   -1.8000 c3        1 MOL      0.144605
      9 C4          6.0370    0.3630   -1.6870 c         1 MOL      0.394153
     10 O2          5.3820    0.1920   -0.6670 o         1 MOL     -0.505382
     11 C5          8.2240    1.2860   -0.5650 c3        1 MOL     -0.142162
     12 C6          8.1210    2.5110    0.3050 c         1 MOL      0.653144
     13 O3          7.0480    2.7230    0.8770 o         1 MOL     -0.715633
     14 O4          9.1520    3.2090    0.6940 o         1 MOL     -0.715633
     15 H4          7.6740    3.0040   -3.0730 hn        1 MOL      0.334536
     16 H5          7.8920    0.7910   -2.5840 h1        1 MOL      0.060021
     17 H6          9.2530    1.1850   -0.9240 hc        1 MOL      0.053505
     18 H7          8.1700    0.4260    0.1030 hc        1 MOL      0.053505
     19 N2          5.6120   -0.2420   -2.7030 n         1 MOL     -0.526928
     20 C7          4.6850   -1.3490   -2.8880 c3        1 MOL      0.159538
     21 C8          5.0900   -2.6400   -2.2470 c         1 MOL      0.485392
     22 O5          5.1370   -3.6530   -2.9240 o         1 MOL     -0.554575
     23 C9          3.2440   -0.8760   -2.6560 c3        1 MOL      0.309207
     24 C10         2.2210   -1.8590   -3.2450 c3        1 MOL     -0.305349
     25 C11         2.8310    0.4800   -3.2130 c3        1 MOL     -0.111694
     26 C12         2.3560   -2.2110   -4.7390 c3        1 MOL     -0.059130
     27 H8          5.8640    0.1940   -3.5750 hn        1 MOL      0.295812
     28 H9          4.7680   -1.6250   -3.9380 h1        1 MOL     -0.012241
     29 H10         3.0860   -0.8740   -1.5710 hc        1 MOL     -0.037795
     30 H11         1.2000   -1.4980   -3.1240 hc        1 MOL      0.096043
     31 H12         2.4330   -2.8490   -2.8410 hc        1 MOL      0.096043
     32 H13         3.1250    0.6890   -4.2390 hc        1 MOL      0.022668
     33 H14         1.7560    0.6310   -3.2120 hc        1 MOL      0.022668
     34 H15         3.3630    1.1330   -2.5350 hc        1 MOL      0.022668
     35 H16         1.4190   -2.6490   -5.0760 hc        1 MOL      0.001284
     36 H17         2.4880   -1.3180   -5.3420 hc        1 MOL      0.001284
     37 H18         3.0640   -2.9900   -4.9860 hc        1 MOL      0.001284
     38 N3          5.6370   -2.6300   -1.0180 n         1 MOL     -0.282357
     39 C13         6.0610   -3.8360   -0.2680 c3        1 MOL     -0.043063
     40 C14         5.1130   -5.0420   -0.1220 c         1 MOL      0.499866
     41 O6          5.5540   -6.1890   -0.1760 o         1 MOL     -0.589034
     42 C15         6.6590   -3.5140    1.1130 c3        1 MOL     -0.111132
     43 C16         7.6000   -2.2320    1.2250 c         1 MOL      0.726756
     44 O7          7.3110   -1.5270    2.2440 o         1 MOL     -0.679525
     45 O8          8.5070   -2.0500    0.4290 o         1 MOL     -0.679525
     46 H19         5.5510   -1.7040   -0.6250 hn        1 MOL      0.244120
     47 H20         6.8790   -4.1740   -0.8980 h1        1 MOL      0.083037
     48 H21         7.1980   -4.4180    1.4090 hc        1 MOL      0.025058
     49 H22         5.8140   -3.3590    1.7750 hc        1 MOL      0.025058
     50 N4          3.8340   -4.8930    0.0560 n         1 MOL     -0.384185
     51 C17         3.1480   -3.6530    0.3190 c3        1 MOL      0.038309
     52 C18         1.7770   -4.0140    1.0060 c         1 MOL      0.385744
     53 O9          1.1280   -5.0550    0.7280 o         1 MOL     -0.533870
     54 H23         3.2280   -5.7010   -0.0090 hn        1 MOL      0.265620
     55 H24         2.8360   -3.3250   -0.6810 h1        1 MOL      0.105051
     56 H25         3.7710   -2.9360    0.8590 h1        1 MOL      0.105051
     57 N5          1.3990   -3.3290    2.0930 n         1 MOL     -0.291083
     58 C19         1.8300   -2.0670    2.6930 c3        1 MOL      0.018916
     59 C20         2.0170   -0.9190    1.6590 c         1 MOL      0.170296
     60 O10         3.1400   -0.5510    1.2950 o         1 MOL     -0.471967
     61 C21         3.0400   -2.3240    3.6230 c3        1 MOL     -0.119152
     62 C22         3.5130   -1.1330    4.4100 c         1 MOL      0.723553
     63 O11         4.6510   -1.1840    4.8660 o         1 MOL     -0.697028
     64 O12         2.7390   -0.2110    4.6280 o         1 MOL     -0.697028
     65 H26         0.6580   -3.7700    2.6240 hn        1 MOL      0.192229
     66 H27         1.0370   -1.6770    3.3430 h1        1 MOL      0.108291
     67 H28         3.9140   -2.7010    3.0850 hc        1 MOL      0.022487
     68 H29         2.6710   -3.0750    4.3160 hc        1 MOL      0.022487
     69 N6          0.9780   -0.3620    1.1430 n         1 MOL     -0.069710
     70 C23        -0.4420   -0.6790    1.1380 c3        1 MOL      0.007007
     71 C24        -0.7520   -1.8780    0.3290 c         1 MOL      0.543967
     72 O13        -0.2450   -1.9830   -0.7580 o         1 MOL     -0.553319
     73 H30         1.2550    0.3440    0.4700 hn        1 MOL      0.053272
     74 H31        -0.9210    0.1490    0.6170 h1        1 MOL      0.050029
     75 H32        -0.8190   -0.8220    2.1540 h1        1 MOL      0.050029
     76 N7         -1.7520   -2.6720    0.8320 n         1 MOL     -0.578641
     77 C25        -2.1820   -3.8790    0.1920 c3        1 MOL      0.259322
     78 C26        -3.0810   -3.7190   -1.0470 c         1 MOL      0.424830
     79 O14        -3.9760   -4.5600   -1.1730 o         1 MOL     -0.531178
     80 C27        -2.6610   -4.8460    1.2610 c3        1 MOL      0.028838
     81 C28        -1.6720   -5.1460    2.4650 c3        1 MOL     -0.143400
     82 C29        -1.6840   -4.0880    3.6040 c         1 MOL      0.558962
     83 N8         -0.9470   -4.2770    4.6790 n         1 MOL     -0.756597
     84 O15        -2.2410   -3.0300    3.6180 o         1 MOL     -0.478273
     85 H33        -2.1550   -2.4540    1.7380 hn        1 MOL      0.266670
     86 H34        -1.2860   -4.3480   -0.2170 h1        1 MOL      0.042365
     87 H35        -2.8920   -5.7910    0.7770 hc        1 MOL      0.004067
     88 H36        -3.5270   -4.4100    1.7470 hc        1 MOL      0.004067
     89 H37        -0.6790   -5.4880    2.1900 hc        1 MOL      0.051648
     90 H38        -2.0740   -6.0440    2.9420 hc        1 MOL      0.051648
     91 H39        -0.4100   -5.1240    4.7300 hn        1 MOL      0.363561
     92 H40        -0.9160   -3.5310    5.3710 hn        1 MOL      0.363561
     93 N9         -2.7970   -2.7470   -1.9730 n         1 MOL     -0.161598
     94 C30        -3.4670   -2.5160   -3.3180 c3        1 MOL     -0.447755
     95 C31        -4.8920   -1.8920   -3.3010 c         1 MOL      0.658384
     96 O16        -5.4640   -1.6960   -4.4170 o         1 MOL     -0.564623
     97 C32        -2.5990   -1.7980   -4.3330 c3        1 MOL      0.371127
     98 C33        -1.3830   -2.5790   -4.8650 c3        1 MOL     -0.225895
     99 C34        -2.2690   -0.3510   -3.9550 c3        1 MOL     -0.225895
    100 H41        -1.9560   -2.2000   -1.8780 hn        1 MOL      0.143072
    101 H42        -3.5850   -3.5360   -3.6790 h1        1 MOL      0.173214
    102 H43        -3.2160   -1.6560   -5.2240 hc        1 MOL     -0.028168
    103 H44        -0.8520   -2.7710   -3.9250 hc        1 MOL      0.054868
    104 H45        -1.7270   -3.4450   -5.4250 hc        1 MOL      0.054868
    105 H46        -0.8440   -1.8760   -5.4840 hc        1 MOL      0.054868
    106 H47        -1.5800   -0.0260   -4.7370 hc        1 MOL      0.054868
    107 H48        -3.1010    0.3560   -3.9160 hc        1 MOL      0.054868
    108 H49        -1.7930   -0.2900   -2.9750 hc        1 MOL      0.054868
    109 N10        -5.4260   -1.4830   -2.1170 n         1 MOL     -0.518002
    110 C35        -6.7890   -0.8580   -2.0850 c3        1 MOL      0.261188
    111 C36        -6.6110    0.5070   -1.3220 c         1 MOL      0.555385
    112 O17        -7.3740    1.4010   -1.6620 o         1 MOL     -0.567534
    113 C37        -7.9200   -1.7800   -1.5490 c3        1 MOL     -0.276199
    114 C38        -8.1730   -3.0360   -2.4250 c         1 MOL      0.631764
    115 N11        -8.4440   -2.9230   -3.7180 n         1 MOL     -0.775588
    116 O18        -8.1010   -4.1500   -1.8850 o         1 MOL     -0.544887
    117 H50        -4.9540   -1.7350   -1.2670 hn        1 MOL      0.301199
    118 H51        -7.1050   -0.6760   -3.1200 h1        1 MOL      0.010245
    119 H52        -8.7880   -1.1220   -1.4660 hc        1 MOL      0.085384
    120 H53        -7.6810   -2.0830   -0.5340 hc        1 MOL      0.085384
    121 H54        -8.4820   -2.0550   -4.2370 hn        1 MOL      0.361237
    122 H55        -8.6530   -3.7400   -4.2690 hn        1 MOL      0.361237
    123 N12        -5.6450    0.5980   -0.4100 n         1 MOL     -0.533395
    124 C39        -5.6790    1.7600    0.4980 c3        1 MOL      0.026282
    125 C40        -4.3700    2.4880    0.7140 c         1 MOL      0.764502
    126 O19        -3.2860    1.8970    0.6300 o         1 MOL     -0.598666
    127 C41        -6.1720    1.2190    1.8840 c3        1 MOL      0.056629
    128 C42        -7.5680    0.5550    1.9570 ca        1 MOL      0.038183
    129 C43        -8.8340    1.1390    1.7140 ca        1 MOL     -0.149846
    130 C44        -7.6200   -0.7860    2.4740 ca        1 MOL     -0.149846
    131 C45       -10.0300    0.3660    1.8210 ca        1 MOL     -0.278826
    132 C46        -8.7420   -1.5210    2.6540 ca        1 MOL     -0.278826
    133 C47        -9.9630   -0.9420    2.3490 ca        1 MOL      0.364420
    134 O20       -11.1760   -1.5970    2.4130 oh        1 MOL     -0.507960
    135 H56        -5.0130   -0.1410   -0.1460 hn        1 MOL      0.266248
    136 H57        -6.4890    2.3920    0.1270 h1        1 MOL      0.042776
    137 H58        -6.3470    2.0910    2.5180 hc        1 MOL      0.034133
    138 H59        -5.4560    0.5760    2.3760 hc        1 MOL      0.034133
    139 H60        -8.8960    2.1920    1.4870 ha        1 MOL      0.128100
    140 H61        -6.7090   -1.3440    2.6110 ha        1 MOL      0.128100
    141 H62       -10.9690    0.8660    1.6060 ha        1 MOL      0.153969
    142 H63        -8.6840   -2.4880    3.1360 ha        1 MOL      0.153969
    143 H64       -11.9140   -1.0970    2.0440 ho        1 MOL      0.342681
    144 N13        -4.3950    3.7870    0.9070 n         1 MOL     -0.587497
    145 C48        -3.3480    4.7130    1.2830 c3        1 MOL      0.113619
    146 C49        -2.1780    4.7530    0.2880 c         1 MOL      0.252200
    147 O21        -1.1470    5.2940    0.6490 o         1 MOL     -0.467297
    148 C50        -2.9630    4.5570    2.7310 c3        1 MOL      0.224195
    149 C51        -4.0300    4.3640    3.7040 c3        1 MOL     -0.101247
    150 C52        -3.4980    4.3220    5.1700 c         1 MOL      0.612392
    151 O22        -4.0710    3.4660    5.9730 o         1 MOL     -0.701891
    152 O23        -2.5770    5.0930    5.5350 o         1 MOL     -0.701891
    153 H65        -5.2670    4.2340    0.6520 hn        1 MOL      0.266425
    154 H66        -3.8540    5.6760    1.2470 h1        1 MOL      0.043687
    155 H67        -2.3480    5.4230    2.9520 hc        1 MOL     -0.015045
    156 H68        -2.3730    3.6370    2.6970 hc        1 MOL     -0.015045
    157 H69        -4.4610    3.3740    3.5180 hc        1 MOL     -0.048625
    158 H70        -4.8030    5.1230    3.5970 hc        1 MOL     -0.048625
    159 N14        -2.1650    4.2120   -0.8980 n         1 MOL     -0.193835
    160 C53        -1.1970    4.4520   -1.9250 c3        1 MOL      0.032040
    161 C54        -1.7310    5.2870   -3.1230 c         1 MOL      0.501539
    162 O24        -0.9080    5.9710   -3.7780 o         1 MOL     -0.525721
    163 C55        -0.7790    3.0550   -2.4270 c3        1 MOL     -0.415662
    164 C56         0.0180    2.1620   -1.4120 c3        1 MOL      0.218508
    165 C57         1.3890    2.7480   -0.9270 c         1 MOL      0.680296
    166 O25         2.0650    2.0100   -0.1510 o         1 MOL     -0.631669
    167 O26         1.8040    3.8460   -1.2960 o         1 MOL     -0.631669
    168 H71        -3.0390    3.7860   -1.1530 hn        1 MOL      0.163611
    169 H72        -0.3640    4.9920   -1.4810 h1        1 MOL      0.140823
    170 H73        -0.1530    3.0520   -3.3230 hc        1 MOL      0.071257
    171 H74        -1.6990    2.5160   -2.6700 hc        1 MOL      0.071257
    172 H75         0.2290    1.1890   -1.8590 hc        1 MOL      0.022267
    173 H76        -0.5930    1.9360   -0.5380 hc        1 MOL      0.022267
    174 N15        -3.0640    5.5070   -3.2800 n         1 MOL     -0.293229
    175 C58        -3.6150    6.5310   -4.1970 c3        1 MOL     -0.275658
    176 H77        -4.6890    6.6210   -4.0360 h1        1 MOL      0.114844
    177 H78        -3.1370    7.4910   -3.9990 h1        1 MOL      0.114844
    178 H79        -3.4260    6.2360   -5.2290 h1        1 MOL      0.114844
    179 H80        -3.6480    4.9520   -2.6840 hn        1 MOL      0.234252
    180 Ca1         4.4500    2.0650    0.9700 Ca        1 MOL      1.692859
    181 O27         5.4220    3.4120    3.0950 oh        1 MOL     -0.810024
    182 H81         5.5720    4.3160    3.3480 ho        1 MOL      0.390495
    183 H82         6.2990    3.0200    3.0720 ho        1 MOL      0.390495
    184 O28         3.4500    4.5570    0.6630 oh        1 MOL     -0.810024
    185 H83         3.6960    5.4450    0.4000 ho        1 MOL      0.390495
    186 H84         2.9220    4.2380   -0.0640 ho        1 MOL      0.390495
    187 O29         2.7390    2.0500    2.9690 oh        1 MOL     -0.810024
    188 H85         2.7170    1.2920    3.5390 ho        1 MOL      0.390495
    189 H86         1.9920    2.5820    3.2420 ho        1 MOL      0.390495
    190 O30         5.6920    0.2380    2.6900 oh        1 MOL     -0.810024
    191 H87         6.2880   -0.4870    2.4990 ho        1 MOL      0.390495
    192 H88         5.4340    0.1000    3.5990 ho        1 MOL      0.390495
@<TRIPOS>BOND
     1    1    2 1   
     2    1    4 1   
     3    1    5 1   
     4    1    6 1   
     5    2    3 2   
     6    2    7 1   
     7    7    8 1   
     8    7   15 1   
     9    8    9 1   
    10    8   11 1   
    11    8   16 1   
    12    9   10 2   
    13    9   19 1   
    14   11   12 1   
    15   11   17 1   
    16   11   18 1   
    17   12   13 1   
    18   12   14 1   
    19   19   20 1   
    20   19   27 1   
    21   20   21 1   
    22   20   23 1   
    23   20   28 1   
    24   21   22 2   
    25   21   38 1   
    26   23   24 1   
    27   23   25 1   
    28   23   29 1   
    29   24   26 1   
    30   24   30 1   
    31   24   31 1   
    32   25   32 1   
    33   25   33 1   
    34   25   34 1   
    35   26   35 1   
    36   26   36 1   
    37   26   37 1   
    38   38   39 1   
    39   38   46 1   
    40   39   40 1   
    41   39   42 1   
    42   39   47 1   
    43   40   41 2   
    44   40   50 1   
    45   42   43 1   
    46   42   48 1   
    47   42   49 1   
    48   43   44 1   
    49   43   45 1   
    50   50   51 1   
    51   50   54 1   
    52   51   52 1   
    53   51   55 1   
    54   51   56 1   
    55   52   53 2   
    56   52   57 1   
    57   57   58 1   
    58   57   65 1   
    59   58   59 1   
    60   58   61 1   
    61   58   66 1   
    62   59   60 2   
    63   59   69 1   
    64   61   62 1   
    65   61   67 1   
    66   61   68 1   
    67   62   63 1   
    68   62   64 1   
    69   69   70 1   
    70   69   73 1   
    71   70   71 1   
    72   70   74 1   
    73   70   75 1   
    74   71   72 2   
    75   71   76 1   
    76   76   77 1   
    77   76   85 1   
    78   77   78 1   
    79   77   80 1   
    80   77   86 1   
    81   78   79 2   
    82   78   93 1   
    83   80   81 1   
    84   80   87 1   
    85   80   88 1   
    86   81   82 1   
    87   81   89 1   
    88   81   90 1   
    89   82   83 1   
    90   82   84 2   
    91   83   91 1   
    92   83   92 1   
    93   93   94 1   
    94   93  100 1   
    95   94   95 1   
    96   94   97 1   
    97   94  101 1   
    98   95   96 2   
    99   95  109 1   
   100   97   98 1   
   101   97   99 1   
   102   97  102 1   
   103   98  103 1   
   104   98  104 1   
   105   98  105 1   
   106   99  106 1   
   107   99  107 1   
   108   99  108 1   
   109  109  110 1   
   110  109  117 1   
   111  110  111 1   
   112  110  113 1   
   113  110  118 1   
   114  111  112 2   
   115  111  123 1   
   116  113  114 1   
   117  113  119 1   
   118  113  120 1   
   119  114  115 1   
   120  114  116 2   
   121  115  121 1   
   122  115  122 1   
   123  123  124 1   
   124  123  135 1   
   125  124  125 1   
   126  124  127 1   
   127  124  136 1   
   128  125  126 2   
   129  125  144 1   
   130  127  128 1   
   131  127  137 1   
   132  127  138 1   
   133  128  129 ar  
   134  128  130 ar  
   135  129  131 ar  
   136  129  139 1   
   137  130  132 ar  
   138  130  140 1   
   139  131  133 ar  
   140  131  141 1   
   141  132  133 ar  
   142  132  142 1   
   143  133  134 1   
   144  134  143 1   
   145  144  145 1   
   146  144  153 1   
   147  145  146 1   
   148  145  148 1   
   149  145  154 1   
   150  146  147 2   
   151  146  159 1   
   152  148  149 1   
   153  148  155 1   
   154  148  156 1   
   155  149  150 1   
   156  149  157 1   
   157  149  158 1   
   158  150  151 1   
   159  150  152 1   
   160  159  160 1   
   161  159  168 1   
   162  160  161 1   
   163  160  163 1   
   164  160  169 1   
   165  161  162 2   
   166  161  174 1   
   167  163  164 1   
   168  163  170 1   
   169  163  171 1   
   170  164  165 1   
   171  164  172 1   
   172  164  173 1   
   173  165  166 1   
   174  165  167 1   
   175  174  175 1   
   176  174  179 1   
   177  175  176 1   
   178  175  177 1   
   179  175  178 1   
   180  181  182 1   
   181  181  183 1   
   182  184  185 1   
   183  184  186 1   
   184  187  188 1   
   185  187  189 1   
   186  190  191 1   
   187  190  192 1   
@<TRIPOS>SUBSTRUCTURE
     1 MOL         1 TEMP              0 ****  ****    0 ROOT
