@<TRIPOS>MOLECULE
MOL
  201   193     1     0     0
SMALL
resp


@<TRIPOS>ATOM
      1 C1         -3.2020   -2.5800    1.5740 c3        1 MOL     -0.617651
      2 C2         -2.0520   -3.2180    0.7660 c         1 MOL      0.692948
      3 O1         -1.1190   -2.5150    0.3040 o         1 MOL     -0.521627
      4 H1         -3.2540   -3.0440    2.5590 hc        1 MOL      0.160702
      5 H2         -3.0180   -1.5110    1.6850 hc        1 MOL      0.160702
      6 H3         -4.1450   -2.7340    1.0500 hc        1 MOL      0.160702
      7 N1         -2.0850   -4.5440    0.4700 n         1 MOL     -0.568188
      8 C3         -1.0590   -5.1640   -0.3750 c3        1 MOL     -0.065600
      9 C4          0.4430   -4.8910   -0.0040 c         1 MOL      0.807779
     10 O2          1.2840   -4.6070   -0.8530 o         1 MOL     -0.541742
     11 C5         -1.4090   -4.8260   -1.8450 c3        1 MOL     -0.265859
     12 C6         -2.7230   -5.4380   -2.3020 c         1 MOL      0.722830
     13 O3         -3.0290   -6.5740   -1.8750 o         1 MOL     -0.670701
     14 O4         -3.3720   -4.7350   -3.1570 o         1 MOL     -0.670701
     15 H4         -2.8310   -5.1290    0.8060 hn        1 MOL      0.334631
     16 H5         -1.2610   -6.2020   -0.0790 h1        1 MOL      0.073917
     17 H6         -0.6350   -5.1700   -2.5300 hc        1 MOL      0.087039
     18 H7         -1.4120   -3.7370   -1.9340 hc        1 MOL      0.087039
     19 N2          0.7980   -5.1070    1.2970 n         1 MOL     -0.634185
     20 C7          2.1170   -5.4010    1.8130 c3        1 MOL     -0.074370
     21 C8          2.7310   -6.7730    1.3460 c         1 MOL      0.585909
     22 O5          2.0330   -7.7870    1.1980 o         1 MOL     -0.575301
     23 C9          2.2480   -5.3350    3.3660 c3        1 MOL      0.337944
     24 C10         1.1130   -6.0650    4.0300 c3        1 MOL      0.031159
     25 C11         2.3350   -3.8360    3.8490 c3        1 MOL     -0.310244
     26 C12         1.1750   -6.1540    5.5750 c3        1 MOL     -0.099803
     27 H8          0.0160   -5.4190    1.8520 hn        1 MOL      0.253069
     28 H9          2.7560   -4.6550    1.3560 h1        1 MOL      0.161947
     29 H10         3.1970   -5.8070    3.6110 hc        1 MOL     -0.041585
     30 H11         1.0930   -7.0440    3.5520 hc        1 MOL     -0.018173
     31 H12         0.1930   -5.5440    3.7880 hc        1 MOL     -0.018173
     32 H13         2.6850   -3.8240    4.8820 hc        1 MOL      0.062117
     33 H14         3.0370   -3.2730    3.2500 hc        1 MOL      0.062117
     34 H15         1.3470   -3.3660    3.8750 hc        1 MOL      0.062117
     35 H16         1.5440   -5.2360    6.0170 hc        1 MOL      0.009025
     36 H17         0.1880   -6.3130    6.0110 hc        1 MOL      0.009025
     37 H18         1.7950   -6.9970    5.8820 hc        1 MOL      0.009025
     38 N3          4.0240   -6.8080    0.9720 n         1 MOL     -0.539657
     39 C13         4.9670   -5.7330    0.6850 c3        1 MOL      0.015910
     40 C14         5.7550   -5.9800   -0.6100 c         1 MOL      0.639621
     41 O6          6.1480   -7.0900   -0.8750 o         1 MOL     -0.572590
     42 C15         5.8290   -5.6790    1.9820 c3        1 MOL     -0.142095
     43 C16         6.8780   -4.6160    2.1380 c         1 MOL      0.777165
     44 O7          7.4740   -4.6180    3.2550 o         1 MOL     -0.693806
     45 O8          7.0380   -3.7180    1.2590 o         1 MOL     -0.693806
     46 H19         4.3910   -7.6510    0.5630 hn        1 MOL      0.296025
     47 H20         4.4590   -4.7820    0.5170 h1        1 MOL      0.057774
     48 H21         6.4200   -6.5970    2.0650 hc        1 MOL      0.028353
     49 H22         5.1580   -5.5960    2.8300 hc        1 MOL      0.028353
     50 N4          6.1650   -4.9480   -1.3670 n         1 MOL     -0.403936
     51 C17         7.2280   -5.1220   -2.4310 c3        1 MOL     -0.079115
     52 C18         7.8280   -3.7860   -2.7680 c         1 MOL      0.589689
     53 O9          9.0170   -3.7440   -3.0200 o         1 MOL     -0.578795
     54 H23         5.8950   -4.0310   -1.0550 hn        1 MOL      0.220056
     55 H24         6.7330   -5.4810   -3.3420 h1        1 MOL      0.075761
     56 H25         7.9170   -5.9220   -2.1440 h1        1 MOL      0.075761
     57 N5          7.0780   -2.6870   -2.7130 n         1 MOL     -0.386787
     58 C19         7.6060   -1.4290   -3.0540 c3        1 MOL      0.095450
     59 C20         8.4270   -0.8690   -1.8630 c         1 MOL      0.609424
     60 O10         9.6410   -0.7050   -1.9150 o         1 MOL     -0.579553
     61 C21         6.6360   -0.3460   -3.3910 c3        1 MOL     -0.304678
     62 C22         5.4830   -0.1080   -2.4400 c         1 MOL      0.712387
     63 O11         4.7040   -1.0550   -2.1840 o         1 MOL     -0.665123
     64 O12         5.4150    0.9870   -1.8100 o         1 MOL     -0.665123
     65 H26         6.0670   -2.7910   -2.6910 hn        1 MOL      0.246223
     66 H27         8.3430   -1.6020   -3.8390 h1        1 MOL      0.015157
     67 H28         6.1660   -0.5140   -4.3600 hc        1 MOL      0.056779
     68 H29         7.2790    0.5310   -3.5130 hc        1 MOL      0.056779
     69 N6          7.6940   -0.5960   -0.7300 n         1 MOL     -0.300295
     70 C23         8.3530    0.1110    0.4120 c3        1 MOL     -0.153325
     71 C24         8.4250    1.6180    0.1940 c         1 MOL      0.477164
     72 O13         9.0910    2.2100    1.0520 o         1 MOL     -0.573957
     73 H30         6.6840   -0.6600   -0.7550 hn        1 MOL      0.283709
     74 H31         9.3430   -0.3200    0.3390 h1        1 MOL      0.121655
     75 H32         7.9120   -0.2600    1.3350 h1        1 MOL      0.121655
     76 N7          7.7680    2.2130   -0.8380 n         1 MOL     -0.023929
     77 C25         7.6020    3.6940   -1.1350 c3        1 MOL     -0.110255
     78 C26         7.1800    4.4920    0.1370 c         1 MOL      0.553285
     79 O14         7.4820    5.7010    0.3100 o         1 MOL     -0.538474
     80 C27         8.8700    4.2380   -1.8160 c3        1 MOL     -0.105804
     81 C28         9.3400    3.6260   -3.0990 c3        1 MOL     -0.015259
     82 C29         8.4540    3.9770   -4.2890 c         1 MOL      0.543746
     83 N8          8.3010    3.1460   -5.2850 n         1 MOL     -0.720796
     84 O15         7.8610    5.0440   -4.4540 o         1 MOL     -0.542578
     85 H33         7.1800    1.5380   -1.2920 hn        1 MOL      0.019207
     86 H34         6.7990    3.8270   -1.8540 h1        1 MOL      0.166392
     87 H35         9.7930    4.1060   -1.2500 hc        1 MOL      0.050181
     88 H36         8.7300    5.2770   -2.1100 hc        1 MOL      0.050181
     89 H37         9.1750    2.5480   -3.0120 hc        1 MOL      0.012270
     90 H38        10.3940    3.8150   -3.3010 hc        1 MOL      0.012270
     91 H39         8.8470    2.3230   -5.4920 hn        1 MOL      0.331974
     92 H40         7.6880    3.4730   -6.0170 hn        1 MOL      0.331974
     93 N9          6.3810    3.9200    0.9930 n         1 MOL     -0.573777
     94 C30         5.8970    4.5540    2.2490 c3        1 MOL      0.157632
     95 C31         4.3890    4.5830    2.4380 c         1 MOL      0.564035
     96 O16         3.9310    5.2790    3.3640 o         1 MOL     -0.583851
     97 C32         6.5980    3.9580    3.5070 c3        1 MOL      0.151194
     98 C33         6.4880    2.4470    3.6480 c3        1 MOL     -0.244730
     99 C34         8.1180    4.3400    3.4600 c3        1 MOL     -0.244730
    100 H41         6.3540    2.9100    0.9600 hn        1 MOL      0.300723
    101 H42         6.1420    5.6140    2.2010 h1        1 MOL      0.060838
    102 H43         6.1770    4.5090    4.3370 hc        1 MOL     -0.005867
    103 H44         6.7810    2.1650    4.6620 hc        1 MOL      0.059676
    104 H45         5.4460    2.1350    3.5570 hc        1 MOL      0.059676
    105 H46         6.9870    1.7360    2.9890 hc        1 MOL      0.059676
    106 H47         8.6530    3.8280    2.6650 hc        1 MOL      0.059676
    107 H48         8.2360    5.4170    3.3110 hc        1 MOL      0.059676
    108 H49         8.5610    4.0940    4.4300 hc        1 MOL      0.059676
    109 N10         3.5610    3.6580    1.8590 n         1 MOL     -0.574120
    110 C35         2.1340    3.4810    2.2150 c3        1 MOL      0.385437
    111 C36         1.2930    3.1900    0.9580 c         1 MOL      0.387109
    112 O17         1.8570    2.7740   -0.1290 o         1 MOL     -0.498327
    113 C37         2.0010    2.4230    3.3100 c3        1 MOL     -0.262711
    114 C38         0.5450    1.9820    3.5700 c         1 MOL      0.570898
    115 N11         0.3180    0.7460    3.3930 n         1 MOL     -0.743000
    116 O18        -0.3520    2.7350    3.8960 o         1 MOL     -0.568738
    117 H50         4.0500    2.9250    1.3690 hn        1 MOL      0.282628
    118 H51         1.8960    4.4280    2.7060 h1        1 MOL      0.022675
    119 H52         2.3860    2.8610    4.2220 hc        1 MOL      0.080297
    120 H53         2.6120    1.5340    3.1740 hc        1 MOL      0.080297
    121 H54         1.0770    0.1670    3.0690 hn        1 MOL      0.376356
    122 H55        -0.5930    0.4360    3.7250 hn        1 MOL      0.376356
    123 N12        -0.0270    3.4790    1.0520 n         1 MOL     -0.409461
    124 C39        -1.0300    3.3800    0.0180 c3        1 MOL      0.140492
    125 C40        -2.4070    3.9030    0.3850 c         1 MOL      0.307504
    126 O19        -2.9440    3.6300    1.4250 o         1 MOL     -0.443915
    127 C41        -1.1650    1.8800   -0.3790 c3        1 MOL     -0.132712
    128 C42        -2.3880    1.4510   -1.2090 ca        1 MOL      0.007635
    129 C43        -3.3160    0.5330   -0.7340 ca        1 MOL     -0.064661
    130 C44        -2.4670    1.8720   -2.6030 ca        1 MOL     -0.064661
    131 C45        -4.4200    0.1680   -1.6060 ca        1 MOL     -0.324993
    132 C46        -3.5990    1.6150   -3.3390 ca        1 MOL     -0.324993
    133 C47        -4.4450    0.6910   -2.8880 ca        1 MOL      0.449511
    134 O20        -5.3910    0.2980   -3.7950 oh        1 MOL     -0.598691
    135 H56        -0.2630    3.8260    1.9690 hn        1 MOL      0.251074
    136 H57        -0.6330    4.0400   -0.7640 h1        1 MOL      0.050230
    137 H58        -1.2090    1.2610    0.5230 hc        1 MOL      0.101046
    138 H59        -0.2920    1.4880   -0.8850 hc        1 MOL      0.101046
    139 H60        -3.2240    0.2280    0.2920 ha        1 MOL      0.095298
    140 H61        -1.6890    2.4940   -3.0080 ha        1 MOL      0.095298
    141 H62        -5.1640   -0.5050   -1.1980 ha        1 MOL      0.178812
    142 H63        -3.7850    1.9780   -4.3370 ha        1 MOL      0.178812
    143 H64        -6.0830   -0.2140   -3.3630 ho        1 MOL      0.435985
    144 N13        -3.0670    4.6450   -0.5370 n         1 MOL     -0.240201
    145 C48        -4.4590    5.1650   -0.4180 c3        1 MOL      0.139080
    146 C49        -5.4900    4.4860   -1.3140 c         1 MOL      0.239733
    147 O21        -5.5670    4.6300   -2.5210 o         1 MOL     -0.538947
    148 C50        -4.4430    6.6240   -0.7510 c3        1 MOL      0.050212
    149 C51        -3.5520    7.3930    0.2820 c3        1 MOL     -0.234312
    150 C52        -3.7440    8.9400    0.0610 c         1 MOL      0.712861
    151 O22        -3.1400    9.5440   -0.8590 o         1 MOL     -0.657734
    152 O23        -4.4110    9.5440    0.9230 o         1 MOL     -0.657734
    153 H65        -2.5740    4.8860   -1.3860 hn        1 MOL      0.254485
    154 H66        -4.9120    4.9550    0.5520 h1        1 MOL      0.080359
    155 H67        -5.4820    6.9650   -0.7610 hc        1 MOL      0.008065
    156 H68        -4.0590    6.7720   -1.7660 hc        1 MOL      0.008065
    157 H69        -2.5950    7.1640   -0.1870 hc        1 MOL      0.039364
    158 H70        -3.6820    7.1770    1.3420 hc        1 MOL      0.039364
    159 N14        -6.3580    3.5440   -0.9490 n         1 MOL      0.038883
    160 C53        -6.4040    2.7560    0.2820 c3        1 MOL     -0.513392
    161 C54        -6.8550    3.6610    1.4780 c         1 MOL      0.765819
    162 O24        -7.5590    4.6030    1.3080 o         1 MOL     -0.532612
    163 C55        -7.3280    1.5070    0.1670 c3        1 MOL      0.084115
    164 C56        -8.7760    1.7330   -0.2860 c3        1 MOL     -0.832777
    165 C57        -9.5350    0.3520   -0.3790 c         1 MOL      0.910490
    166 O25        -9.2300   -0.5290   -1.2710 o         1 MOL     -0.667439
    167 O26       -10.3510   -0.0410    0.4970 o         1 MOL     -0.667439
    168 H71        -6.9900    3.2490   -1.6740 hn        1 MOL      0.203628
    169 H72        -5.3660    2.4540    0.4220 h1        1 MOL      0.081919
    170 H73        -7.3620    0.8350    1.0290 hc        1 MOL      0.069733
    171 H74        -6.8880    0.8540   -0.5860 hc        1 MOL      0.069733
    172 H75        -8.8410    2.1640   -1.2900 hc        1 MOL      0.197864
    173 H76        -9.3090    2.3790    0.4120 hc        1 MOL      0.197864
    174 N15        -6.2840    3.2710    2.6540 n         1 MOL     -0.508700
    175 C58        -6.2820    4.0300    3.9250 c3        1 MOL     -0.036297
    176 H77        -6.2300    3.3350    4.7630 h1        1 MOL      0.063474
    177 H78        -5.4180    4.6940    3.9520 h1        1 MOL      0.063474
    178 H79        -7.1960    4.6190    3.9990 h1        1 MOL      0.063474
    179 H80        -5.6940    2.4630    2.5530 hn        1 MOL      0.307755
    180 Ca1       -10.9500   -2.4900   -0.4970 Ca        1 MOL      1.653725
    181 O27       -13.2480   -3.3910   -1.7040 oh        1 MOL     -0.801805
    182 H81       -13.9550   -2.8130   -1.9770 ho        1 MOL      0.358065
    183 H82       -13.5360   -4.2670   -1.9540 ho        1 MOL      0.358065
    184 O28       -10.1500   -3.2330   -2.8550 oh        1 MOL     -0.801805
    185 H83       -10.5210   -3.8110   -3.5220 ho        1 MOL      0.358065
    186 H84        -9.2620   -3.0440   -3.1590 ho        1 MOL      0.358065
    187 O29       -10.4670   -2.8860    2.0350 oh        1 MOL     -0.801805
    188 H85       -10.8440   -2.2410    2.6370 ho        1 MOL      0.358065
    189 H86       -10.3550   -3.6630    2.5670 ho        1 MOL      0.358065
    190 O30       -13.2390   -1.6840    0.8020 oh        1 MOL     -0.801805
    191 H87       -13.5300   -2.2000    1.5620 ho        1 MOL      0.358065
    192 H88       -14.0510   -1.4190    0.3690 ho        1 MOL      0.358065
    193 O31       -11.0250   -5.0840   -0.3110 oh        1 MOL     -0.801805
    194 H89       -10.3390   -5.5240    0.1910 ho        1 MOL      0.358065
    195 H90       -11.7530   -5.7090   -0.3260 ho        1 MOL      0.358065
    196 O32       -12.2470   -0.7160   -2.1460 oh        1 MOL     -0.801805
    197 H91       -12.5550   -1.1050   -2.9650 ho        1 MOL      0.358065
    198 H92       -12.3950    0.2170   -2.2550 ho        1 MOL      0.358065
    199 O33        -8.2030   -2.9550   -0.0780 oh        1 MOL     -0.801805
    200 H93        -7.6200   -3.5910   -0.4930 ho        1 MOL      0.358065
    201 H94        -7.7110   -2.6400    0.6810 ho        1 MOL      0.358065
@<TRIPOS>BOND
     1    1    2 1   
     2    1    4 1   
     3    1    5 1   
     4    1    6 1   
     5    2    3 2   
     6    2    7 1   
     7    7    8 1   
     8    7   15 1   
     9    8    9 1   
    10    8   11 1   
    11    8   16 1   
    12    9   10 2   
    13    9   19 1   
    14   11   12 1   
    15   11   17 1   
    16   11   18 1   
    17   12   13 1   
    18   12   14 1   
    19   19   20 1   
    20   19   27 1   
    21   20   21 1   
    22   20   23 1   
    23   20   28 1   
    24   21   22 2   
    25   21   38 1   
    26   23   24 1   
    27   23   25 1   
    28   23   29 1   
    29   24   26 1   
    30   24   30 1   
    31   24   31 1   
    32   25   32 1   
    33   25   33 1   
    34   25   34 1   
    35   26   35 1   
    36   26   36 1   
    37   26   37 1   
    38   38   39 1   
    39   38   46 1   
    40   39   40 1   
    41   39   42 1   
    42   39   47 1   
    43   40   41 2   
    44   40   50 1   
    45   42   43 1   
    46   42   48 1   
    47   42   49 1   
    48   43   44 1   
    49   43   45 1   
    50   50   51 1   
    51   50   54 1   
    52   51   52 1   
    53   51   55 1   
    54   51   56 1   
    55   52   53 2   
    56   52   57 1   
    57   57   58 1   
    58   57   65 1   
    59   58   59 1   
    60   58   61 1   
    61   58   66 1   
    62   59   60 2   
    63   59   69 1   
    64   61   62 1   
    65   61   67 1   
    66   61   68 1   
    67   62   63 1   
    68   62   64 1   
    69   69   70 1   
    70   69   73 1   
    71   70   71 1   
    72   70   74 1   
    73   70   75 1   
    74   71   72 2   
    75   71   76 1   
    76   76   77 1   
    77   76   85 1   
    78   77   78 1   
    79   77   80 1   
    80   77   86 1   
    81   78   79 2   
    82   78   93 1   
    83   80   81 1   
    84   80   87 1   
    85   80   88 1   
    86   81   82 1   
    87   81   89 1   
    88   81   90 1   
    89   82   83 1   
    90   82   84 2   
    91   83   91 1   
    92   83   92 1   
    93   93   94 1   
    94   93  100 1   
    95   94   95 1   
    96   94   97 1   
    97   94  101 1   
    98   95   96 2   
    99   95  109 1   
   100   97   98 1   
   101   97   99 1   
   102   97  102 1   
   103   98  103 1   
   104   98  104 1   
   105   98  105 1   
   106   99  106 1   
   107   99  107 1   
   108   99  108 1   
   109  109  110 1   
   110  109  117 1   
   111  110  111 1   
   112  110  113 1   
   113  110  118 1   
   114  111  112 2   
   115  111  123 1   
   116  113  114 1   
   117  113  119 1   
   118  113  120 1   
   119  114  115 1   
   120  114  116 2   
   121  115  121 1   
   122  115  122 1   
   123  123  124 1   
   124  123  135 1   
   125  124  125 1   
   126  124  127 1   
   127  124  136 1   
   128  125  126 2   
   129  125  144 1   
   130  127  128 1   
   131  127  137 1   
   132  127  138 1   
   133  128  129 ar  
   134  128  130 ar  
   135  129  131 ar  
   136  129  139 1   
   137  130  132 ar  
   138  130  140 1   
   139  131  133 ar  
   140  131  141 1   
   141  132  133 ar  
   142  132  142 1   
   143  133  134 1   
   144  134  143 1   
   145  144  145 1   
   146  144  153 1   
   147  145  146 1   
   148  145  148 1   
   149  145  154 1   
   150  146  147 2   
   151  146  159 1   
   152  148  149 1   
   153  148  155 1   
   154  148  156 1   
   155  149  150 1   
   156  149  157 1   
   157  149  158 1   
   158  150  151 1   
   159  150  152 1   
   160  159  160 1   
   161  159  168 1   
   162  160  161 1   
   163  160  163 1   
   164  160  169 1   
   165  161  162 2   
   166  161  174 1   
   167  163  164 1   
   168  163  170 1   
   169  163  171 1   
   170  164  165 1   
   171  164  172 1   
   172  164  173 1   
   173  165  166 1   
   174  165  167 1   
   175  174  175 1   
   176  174  179 1   
   177  175  176 1   
   178  175  177 1   
   179  175  178 1   
   180  181  182 1   
   181  181  183 1   
   182  184  185 1   
   183  184  186 1   
   184  187  188 1   
   185  187  189 1   
   186  190  191 1   
   187  190  192 1   
   188  193  194 1   
   189  193  195 1   
   190  196  197 1   
   191  196  198 1   
   192  199  200 1   
   193  199  201 1   
@<TRIPOS>SUBSTRUCTURE
     1 MOL         1 TEMP              0 ****  ****    0 ROOT
