@<TRIPOS>MOLECULE
MOL
  192   187     1     0     0
SMALL
resp


@<TRIPOS>ATOM
      1 C1         -6.5500   -1.3860    5.5860 c3        1 MOL     -0.300403
      2 C2         -5.9360   -1.2220    4.1530 c         1 MOL      0.736353
      3 O1         -6.0160   -2.1650    3.3570 o         1 MOL     -0.588647
      4 H1         -7.2830   -2.1940    5.5760 hc        1 MOL      0.075069
      5 H2         -5.7580   -1.6250    6.2960 hc        1 MOL      0.075069
      6 H3         -7.0360   -0.4570    5.8830 hc        1 MOL      0.075069
      7 N1         -5.4870   -0.0290    3.7750 n         1 MOL     -0.618856
      8 C3         -5.1550    0.4390    2.4410 c3        1 MOL      0.524727
      9 C4         -3.7170    0.0120    2.0190 c         1 MOL      0.023989
     10 O2         -3.2720    0.4260    0.9220 o         1 MOL     -0.366763
     11 C5         -5.3490    2.0060    2.2480 c3        1 MOL     -0.131698
     12 C6         -6.6630    2.6420    2.6890 c         1 MOL      0.709293
     13 O3         -6.8670    2.5330    3.9020 o         1 MOL     -0.702192
     14 O4         -7.4160    3.2880    1.9180 o         1 MOL     -0.702192
     15 H4         -5.6430    0.6790    4.4810 hn        1 MOL      0.254641
     16 H5         -5.8300   -0.0600    1.7500 h1        1 MOL      0.021605
     17 H6         -5.3260    2.1910    1.1760 hc        1 MOL     -0.046060
     18 H7         -4.5840    2.6310    2.6990 hc        1 MOL     -0.046060
     19 N2         -2.9230   -0.8650    2.7330 n         1 MOL     -0.321978
     20 C7         -1.4700   -0.8100    2.6520 c3        1 MOL      0.155279
     21 C8         -0.7990   -2.1630    2.2470 c         1 MOL      0.419879
     22 O5         -1.0850   -3.1800    2.8140 o         1 MOL     -0.523174
     23 C9         -0.9410   -0.3740    3.9990 c3        1 MOL     -0.219861
     24 C10        -1.2970    1.0770    4.4720 c3        1 MOL      0.039360
     25 C11        -0.2480    1.5110    5.4870 c3        1 MOL     -0.030996
     26 C12        -0.3520    3.0210    5.8930 c3        1 MOL      0.068251
     27 N3          0.6600    3.3090    6.9130 n4        1 MOL     -0.319194
     28 H8         -3.3450   -1.4300    3.4470 hn        1 MOL      0.266653
     29 H9         -1.1650   -0.0320    1.9500 h1        1 MOL      0.174418
     30 H10         0.1350   -0.4810    3.8860 hc        1 MOL      0.061970
     31 H11        -1.2810   -1.0870    4.7560 hc        1 MOL      0.061970
     32 H12        -2.3050    1.1060    4.8660 hc        1 MOL      0.018853
     33 H13        -1.1860    1.6180    3.5290 hc        1 MOL      0.018853
     34 H14         0.7160    1.3710    4.9910 hc        1 MOL      0.030801
     35 H15        -0.2660    0.8800    6.3670 hc        1 MOL      0.030801
     36 H16        -1.3820    3.0940    6.2500 hx        1 MOL      0.073472
     37 H17        -0.2870    3.6860    5.0260 hx        1 MOL      0.073472
     38 H18         1.6130    3.2890    6.6060 hn        1 MOL      0.318406
     39 H19         0.4730    4.1950    7.3620 hn        1 MOL      0.318406
     40 H20         0.5680    2.7340    7.7380 hn        1 MOL      0.318406
     41 N4          0.0460   -2.1290    1.1820 n         1 MOL      0.123426
     42 C13         0.7800   -1.1100    0.4440 c3        1 MOL     -0.716927
     43 C14         1.3580    0.0790    1.2590 c         1 MOL      0.848769
     44 O6          0.8450    1.1730    1.2560 o         1 MOL     -0.598124
     45 C15        -0.0720   -0.7080   -0.7530 c3        1 MOL     -0.780010
     46 C16        -0.2280   -1.8240   -1.8340 c         1 MOL      0.807499
     47 O7          0.2620   -3.0370   -1.6650 o         1 MOL     -0.728769
     48 O8         -0.8580   -1.5290   -2.9190 o         1 MOL     -0.728769
     49 H21         0.3090   -3.0690    0.9170 hn        1 MOL      0.025320
     50 H22         1.7190   -1.5260    0.0700 h1        1 MOL      0.295762
     51 H23         0.5270    0.0780   -1.2170 hc        1 MOL      0.304398
     52 H24        -1.0720   -0.3510   -0.5070 hc        1 MOL      0.304398
     53 N5          2.4640   -0.1180    2.0050 n         1 MOL     -0.501110
     54 C17         3.2540   -1.3220    2.0650 c3        1 MOL      0.016012
     55 C18         4.4660   -1.2000    2.9250 c         1 MOL      0.517110
     56 O9          4.5700   -0.2660    3.7480 o         1 MOL     -0.548669
     57 H25         2.8810    0.6570    2.5120 hn        1 MOL      0.295673
     58 H26         3.6180   -1.6160    1.0850 h1        1 MOL      0.048201
     59 H27         2.6080   -2.1160    2.4500 h1        1 MOL      0.048201
     60 N6          5.5260   -2.0530    2.7410 n         1 MOL     -0.498781
     61 C19         5.5770   -3.4150    2.0510 c3        1 MOL      0.205490
     62 C20         6.3120   -3.2810    0.7120 c         1 MOL      0.397669
     63 O10         7.2440   -2.4990    0.6490 o         1 MOL     -0.417736
     64 C21         6.1670   -4.4260    2.9850 c3        1 MOL     -0.135818
     65 C22         7.4400   -4.1690    3.8200 c         1 MOL      0.674631
     66 O11         7.7590   -4.9680    4.6900 o         1 MOL     -0.644770
     67 O12         8.1160   -3.0960    3.6170 o         1 MOL     -0.644770
     68 H28         6.3770   -1.8370    3.2490 hn        1 MOL      0.315305
     69 H29         4.5660   -3.8220    1.9310 h1        1 MOL     -0.027461
     70 H30         6.2140   -5.3390    2.3820 hc        1 MOL      0.012479
     71 H31         5.4090   -4.7020    3.7180 hc        1 MOL      0.012479
     72 N7          5.9240   -4.0700   -0.2760 n         1 MOL     -0.339512
     73 C23         6.2620   -3.7370   -1.6910 c3        1 MOL      0.007138
     74 C24         6.1980   -2.2160   -2.0600 c         1 MOL      0.423376
     75 O13         7.1270   -1.7130   -2.6760 o         1 MOL     -0.528362
     76 H32         5.3600   -4.8920   -0.1210 hn        1 MOL      0.216382
     77 H33         5.4680   -4.1690   -2.3110 h1        1 MOL      0.052413
     78 H34         7.1110   -4.3130   -2.0580 h1        1 MOL      0.052413
     79 N8          5.1490   -1.5230   -1.6800 n         1 MOL     -0.169648
     80 C25         4.9240   -0.1470   -2.1870 c3        1 MOL      0.032119
     81 C26         5.1340    0.8900   -1.0070 c         1 MOL      0.407024
     82 O14         4.6410    0.6900    0.1250 o         1 MOL     -0.479358
     83 C27         3.5060    0.0380   -2.8180 c3        1 MOL      0.517913
     84 C28         3.2780   -0.9350   -3.9580 c3        1 MOL     -0.348033
     85 O15         3.3480    1.3950   -3.3320 oh        1 MOL     -0.651710
     86 H35         4.3540   -1.9430   -1.2220 hn        1 MOL      0.083806
     87 H36         5.5390    0.1730   -3.0170 h1        1 MOL      0.063179
     88 H37         2.7870   -0.0930   -2.0070 h1        1 MOL     -0.006047
     89 H38         2.3920    1.4360   -3.4410 ho        1 MOL      0.392495
     90 H39         3.7310   -1.9050   -3.7810 hc        1 MOL      0.068506
     91 H40         2.2240   -1.1270   -4.1110 hc        1 MOL      0.068506
     92 H41         3.7020   -0.4790   -4.8580 hc        1 MOL      0.068506
     93 N9          5.6960    2.0090   -1.3750 n         1 MOL     -0.251497
     94 C29         5.7300    3.1550   -0.4340 c3        1 MOL     -0.278173
     95 C30         4.4800    4.0280   -0.3870 c         1 MOL      0.475094
     96 O16         4.5290    5.0970    0.2380 o         1 MOL     -0.540820
     97 C31         7.0710    3.9280   -0.5450 c3        1 MOL      0.216632
     98 C32         7.0080    4.8590   -1.8180 c3        1 MOL      0.138112
     99 C33         8.2650    2.9450   -0.7020 c3        1 MOL     -0.288679
    100 C34         8.2640    5.7510   -1.9750 c3        1 MOL     -0.160245
    101 H42         6.0970    2.0280   -2.2970 hn        1 MOL      0.258908
    102 H43         5.6930    2.6890    0.5460 h1        1 MOL      0.204366
    103 H44         7.2540    4.5310    0.3420 hc        1 MOL      0.016418
    104 H45         6.1400    5.5050   -1.7040 hc        1 MOL     -0.031787
    105 H46         6.8970    4.3150   -2.7580 hc        1 MOL     -0.031787
    106 H47         9.1980    3.5080   -0.6590 hc        1 MOL      0.074530
    107 H48         8.1380    2.2020    0.0900 hc        1 MOL      0.074530
    108 H49         8.2480    2.4390   -1.6650 hc        1 MOL      0.074530
    109 H50         9.0670    5.0730   -2.2740 hc        1 MOL      0.030624
    110 H51         8.0610    6.4650   -2.7710 hc        1 MOL      0.030624
    111 H52         8.6140    6.2580   -1.0780 hc        1 MOL      0.030624
    112 N10         3.3520    3.7110   -1.0480 n         1 MOL     -0.343425
    113 C35         2.1360    4.4320   -1.0510 c3        1 MOL      0.190200
    114 C36         0.9130    3.5360   -1.1900 c         1 MOL      0.419707
    115 O17         0.9570    2.5330   -1.9630 o         1 MOL     -0.454769
    116 C37         2.1030    5.5890   -2.1020 c3        1 MOL      0.203255
    117 C38         3.1700    6.6620   -2.0390 c3        1 MOL     -0.387646
    118 O18         0.9190    6.3910   -1.9750 oh        1 MOL     -0.602381
    119 H53         3.3550    2.9240   -1.6780 hn        1 MOL      0.164334
    120 H54         1.9010    4.9560   -0.1270 h1        1 MOL      0.057544
    121 H55         2.1050    5.0910   -3.0690 h1        1 MOL      0.028513
    122 H56         0.6790    6.5340   -2.8970 ho        1 MOL      0.391975
    123 H57         3.2550    7.1230   -1.0630 hc        1 MOL      0.113512
    124 H58         4.2000    6.3300   -2.1840 hc        1 MOL      0.113512
    125 H59         3.0740    7.4690   -2.7770 hc        1 MOL      0.113512
    126 N11        -0.1750    3.7190   -0.3980 n         1 MOL     -0.476721
    127 C39        -1.3800    2.8850   -0.2570 c3        1 MOL      0.069153
    128 C40        -2.0930    2.6820   -1.5380 c         1 MOL      0.305819
    129 O19        -1.7830    3.2840   -2.5420 o         1 MOL     -0.484758
    130 C41        -2.3470    3.6660    0.6490 c3        1 MOL      0.299094
    131 C42        -2.9290    4.9830    0.1330 c3        1 MOL     -0.124322
    132 O20        -1.7310    3.9700    1.9300 oh        1 MOL     -0.655656
    133 H60        -0.0630    4.5040    0.2330 hn        1 MOL      0.337009
    134 H61        -1.1210    1.9540    0.2530 h1        1 MOL      0.080913
    135 H62        -3.1590    3.0030    0.9310 h1        1 MOL      0.100531
    136 H63        -2.3910    3.9590    2.6270 ho        1 MOL      0.367049
    137 H64        -3.5390    5.6110    0.7770 hc        1 MOL      0.027091
    138 H65        -2.0890    5.4950   -0.3210 hc        1 MOL      0.027091
    139 H66        -3.5880    4.6440   -0.6710 hc        1 MOL      0.027091
    140 N12        -2.9350    1.6660   -1.5180 n         1 MOL     -0.067445
    141 C43        -3.6840    1.1150   -2.6820 c3        1 MOL     -0.209651
    142 C44        -4.1210   -0.4050   -2.6930 c         1 MOL      0.727546
    143 O21        -4.5200   -0.9420   -3.7450 o         1 MOL     -0.637287
    144 C45        -4.8510    2.1720   -3.0950 c3        1 MOL     -0.222520
    145 C46        -5.9940    2.2710   -2.0700 c3        1 MOL      0.025946
    146 C47        -7.0070    3.4900   -2.2240 c3        1 MOL     -0.114111
    147 C48        -6.2560    4.8090   -2.5150 c3        1 MOL      0.188887
    148 N13        -7.1840    5.8120   -3.0230 n4        1 MOL     -0.509897
    149 H67        -3.0940    1.1260   -0.6800 hn        1 MOL      0.170908
    150 H68        -2.9500    1.1740   -3.4970 h1        1 MOL      0.158441
    151 H69        -5.2010    1.9720   -4.1020 hc        1 MOL      0.070842
    152 H70        -4.3540    3.1360   -3.1430 hc        1 MOL      0.070842
    153 H71        -5.5540    2.4840   -1.1030 hc        1 MOL      0.043787
    154 H72        -6.5880    1.3750   -1.8820 hc        1 MOL      0.043787
    155 H73        -7.6230    3.5330   -1.3250 hc        1 MOL      0.051073
    156 H74        -7.7560    3.2590   -2.9790 hc        1 MOL      0.051073
    157 H75        -5.6160    4.6040   -3.3620 hx        1 MOL      0.040628
    158 H76        -5.6280    5.1870   -1.7050 hx        1 MOL      0.040628
    159 H77        -6.7850    6.7380   -2.9800 hn        1 MOL      0.360349
    160 H78        -7.4540    5.5020   -3.9430 hn        1 MOL      0.360349
    161 H79        -8.0130    5.9080   -2.4450 hn        1 MOL      0.360349
    162 N14        -4.0330   -1.1330   -1.5770 n         1 MOL     -0.322534
    163 C49        -4.4390   -2.5130   -1.4660 c3        1 MOL     -0.034037
    164 C50        -5.9420   -2.5040   -1.2330 c         1 MOL      0.328442
    165 O22        -6.3780   -1.8320   -0.3300 o         1 MOL     -0.457294
    166 C51        -3.7490   -3.1090   -0.2310 c3        1 MOL      0.631968
    167 C52        -4.2020   -4.5410    0.0950 c3        1 MOL     -0.847086
    168 C53        -3.8120   -5.4560   -1.0220 c         1 MOL      0.773173
    169 O23        -4.7680   -6.0560   -1.6230 o         1 MOL     -0.715764
    170 O24        -2.6800   -5.6850   -1.3470 o         1 MOL     -0.715764
    171 H80        -3.7480   -0.7640   -0.6800 hn        1 MOL      0.113087
    172 H81        -4.2690   -3.0500   -2.3950 h1        1 MOL      0.104678
    173 H82        -4.0070   -2.4940    0.6290 hc        1 MOL     -0.142889
    174 H83        -2.6920   -3.1770   -0.5170 hc        1 MOL     -0.142889
    175 H84        -5.2930   -4.5600    0.1820 hc        1 MOL      0.246029
    176 H85        -3.8510   -4.8820    1.0780 hc        1 MOL      0.246029
    177 N15        -6.7400   -3.2250   -2.0540 n         1 MOL     -0.250486
    178 C54        -8.1740   -3.3000   -1.8530 c3        1 MOL     -0.115204
    179 H86        -8.4990   -4.3380   -1.9350 h1        1 MOL      0.075542
    180 H87        -8.4230   -2.9200   -0.8620 h1        1 MOL      0.075542
    181 H88        -8.6800   -2.7010   -2.6100 h1        1 MOL      0.075542
    182 H89        -6.2370   -3.7980   -2.7230 hn        1 MOL      0.267220
    183 Ca1        -0.1960   -5.4880   -2.0740 Ca        1 MOL      1.675621
    184 O25        -1.6590   -4.0440   -3.7010 oh        1 MOL     -0.924722
    185 H90        -1.4680   -3.1550   -3.4020 ho        1 MOL      0.452047
    186 H91        -2.3800   -3.9380   -4.3290 ho        1 MOL      0.452047
    187 O26         1.3510   -4.2840   -4.1990 oh        1 MOL     -0.924722
    188 H92         0.8290   -3.4970   -4.3400 ho        1 MOL      0.452047
    189 H93         2.0340   -4.2450   -4.8700 ho        1 MOL      0.452047
    190 O27        -1.5570   -7.1710   -3.7520 oh        1 MOL     -0.924722
    191 H94        -1.3480   -8.0380   -4.1030 ho        1 MOL      0.452047
    192 H95        -2.3800   -6.9330   -4.1710 ho        1 MOL      0.452047
@<TRIPOS>BOND
     1    1    2 1   
     2    1    4 1   
     3    1    5 1   
     4    1    6 1   
     5    2    3 2   
     6    2    7 1   
     7    7    8 1   
     8    7   15 1   
     9    8    9 1   
    10    8   11 1   
    11    8   16 1   
    12    9   10 2   
    13    9   19 1   
    14   11   12 1   
    15   11   17 1   
    16   11   18 1   
    17   12   13 1   
    18   12   14 1   
    19   19   20 1   
    20   19   28 1   
    21   20   21 1   
    22   20   23 1   
    23   20   29 1   
    24   21   22 2   
    25   21   41 1   
    26   23   24 1   
    27   23   30 1   
    28   23   31 1   
    29   24   25 1   
    30   24   32 1   
    31   24   33 1   
    32   25   26 1   
    33   25   34 1   
    34   25   35 1   
    35   26   27 1   
    36   26   36 1   
    37   26   37 1   
    38   27   38 1   
    39   27   39 1   
    40   27   40 1   
    41   41   42 1   
    42   41   49 1   
    43   42   43 1   
    44   42   45 1   
    45   42   50 1   
    46   43   44 2   
    47   43   53 1   
    48   45   46 1   
    49   45   51 1   
    50   45   52 1   
    51   46   47 1   
    52   46   48 1   
    53   53   54 1   
    54   53   57 1   
    55   54   55 1   
    56   54   58 1   
    57   54   59 1   
    58   55   56 2   
    59   55   60 1   
    60   60   61 1   
    61   60   68 1   
    62   61   62 1   
    63   61   64 1   
    64   61   69 1   
    65   62   63 2   
    66   62   72 1   
    67   64   65 1   
    68   64   70 1   
    69   64   71 1   
    70   65   66 1   
    71   65   67 1   
    72   72   73 1   
    73   72   76 1   
    74   73   74 1   
    75   73   77 1   
    76   73   78 1   
    77   74   75 2   
    78   74   79 1   
    79   79   80 1   
    80   79   86 1   
    81   80   81 1   
    82   80   83 1   
    83   80   87 1   
    84   81   82 2   
    85   81   93 1   
    86   83   84 1   
    87   83   85 1   
    88   83   88 1   
    89   84   90 1   
    90   84   91 1   
    91   84   92 1   
    92   85   89 1   
    93   93   94 1   
    94   93  101 1   
    95   94   95 1   
    96   94   97 1   
    97   94  102 1   
    98   95   96 2   
    99   95  112 1   
   100   97   98 1   
   101   97   99 1   
   102   97  103 1   
   103   98  100 1   
   104   98  104 1   
   105   98  105 1   
   106   99  106 1   
   107   99  107 1   
   108   99  108 1   
   109  100  109 1   
   110  100  110 1   
   111  100  111 1   
   112  112  113 1   
   113  112  119 1   
   114  113  114 1   
   115  113  116 1   
   116  113  120 1   
   117  114  115 2   
   118  114  126 1   
   119  116  117 1   
   120  116  118 1   
   121  116  121 1   
   122  117  123 1   
   123  117  124 1   
   124  117  125 1   
   125  118  122 1   
   126  126  127 1   
   127  126  133 1   
   128  127  128 1   
   129  127  130 1   
   130  127  134 1   
   131  128  129 2   
   132  128  140 1   
   133  130  131 1   
   134  130  132 1   
   135  130  135 1   
   136  131  137 1   
   137  131  138 1   
   138  131  139 1   
   139  132  136 1   
   140  140  141 1   
   141  140  149 1   
   142  141  142 1   
   143  141  144 1   
   144  141  150 1   
   145  142  143 2   
   146  142  162 1   
   147  144  145 1   
   148  144  151 1   
   149  144  152 1   
   150  145  146 1   
   151  145  153 1   
   152  145  154 1   
   153  146  147 1   
   154  146  155 1   
   155  146  156 1   
   156  147  148 1   
   157  147  157 1   
   158  147  158 1   
   159  148  159 1   
   160  148  160 1   
   161  148  161 1   
   162  162  163 1   
   163  162  171 1   
   164  163  164 1   
   165  163  166 1   
   166  163  172 1   
   167  164  165 2   
   168  164  177 1   
   169  166  167 1   
   170  166  173 1   
   171  166  174 1   
   172  167  168 1   
   173  167  175 1   
   174  167  176 1   
   175  168  169 1   
   176  168  170 1   
   177  177  178 1   
   178  177  182 1   
   179  178  179 1   
   180  178  180 1   
   181  178  181 1   
   182  184  185 1   
   183  184  186 1   
   184  187  188 1   
   185  187  189 1   
   186  190  191 1   
   187  190  192 1   
@<TRIPOS>SUBSTRUCTURE
     1 MOL         1 TEMP              0 ****  ****    0 ROOT
