@<TRIPOS>MOLECULE
MOL
  186   183     1     0     0
SMALL
resp


@<TRIPOS>ATOM
      1 C1          4.0350    3.8620   -3.4380 c3        1 MOL     -0.382568
      2 C2          4.8830    2.9080   -2.5210 c         1 MOL      0.767910
      3 O1          4.3890    2.6200   -1.4620 o         1 MOL     -0.604901
      4 H1          3.9580    4.8420   -2.9690 hc        1 MOL      0.087186
      5 H2          4.5230    3.9620   -4.4080 hc        1 MOL      0.087186
      6 H3          3.0380    3.4450   -3.5740 hc        1 MOL      0.087186
      7 N1          5.9590    2.4870   -3.1050 n         1 MOL     -0.681948
      8 C3          6.8180    1.3220   -2.6570 c3        1 MOL      0.371335
      9 C4          5.9850    0.1380   -2.0980 c         1 MOL      0.292222
     10 O2          5.5950    0.1540   -0.9840 o         1 MOL     -0.557334
     11 C5          7.9130    1.6910   -1.6570 c3        1 MOL     -0.221575
     12 C6          7.5650    2.7040   -0.6010 c         1 MOL      0.772866
     13 O3          6.7030    2.4400    0.2010 o         1 MOL     -0.740780
     14 O4          8.2070    3.8110   -0.5570 o         1 MOL     -0.740780
     15 H4          6.1440    2.7360   -4.0620 hn        1 MOL      0.323111
     16 H5          7.3900    0.8660   -3.4670 h1        1 MOL     -0.013008
     17 H6          8.7510    1.8970   -2.3230 hc        1 MOL      0.028946
     18 H7          8.1900    0.7230   -1.2470 hc        1 MOL      0.028946
     19 N2          5.5850   -0.7480   -3.0620 n         1 MOL     -0.450902
     20 C7          4.9740   -2.0510   -2.8390 c3        1 MOL      0.052075
     21 C8          5.7060   -3.0920   -1.9690 c         1 MOL      0.429847
     22 O5          6.0700   -4.1570   -2.4920 o         1 MOL     -0.572172
     23 C9          3.5250   -1.9250   -2.3980 c3        1 MOL      0.557446
     24 C10         2.7320   -3.2390   -2.5060 c3        1 MOL     -0.375320
     25 C11         2.7790   -0.8520   -3.3330 c3        1 MOL     -0.374752
     26 C12         2.5760   -3.7520   -3.9160 c3        1 MOL     -0.184855
     27 H8          5.8920   -0.5720   -4.0070 hn        1 MOL      0.248371
     28 H9          5.0180   -2.5410   -3.8050 h1        1 MOL      0.053415
     29 H10         3.3470   -1.6200   -1.3740 hc        1 MOL     -0.133167
     30 H11         1.7280   -2.9830   -2.1720 hc        1 MOL      0.129352
     31 H12         3.2630   -4.0020   -1.9500 hc        1 MOL      0.129352
     32 H13         3.0060   -0.9680   -4.3940 hc        1 MOL      0.075218
     33 H14         1.7080   -1.0180   -3.1920 hc        1 MOL      0.075218
     34 H15         2.9850    0.1950   -3.1110 hc        1 MOL      0.075218
     35 H16         2.1700   -4.7630   -3.9620 hc        1 MOL      0.036781
     36 H17         1.7680   -3.2280   -4.4240 hc        1 MOL      0.036781
     37 H18         3.4650   -3.6640   -4.5340 hc        1 MOL      0.036781
     38 N3          5.8350   -2.7610   -0.6710 n         1 MOL     -0.191413
     39 C13         6.5550   -3.6430    0.2710 c3        1 MOL      0.029826
     40 C14         5.8690   -4.9530    0.5280 c         1 MOL      0.522953
     41 O6          6.4500   -6.0360    0.5950 o         1 MOL     -0.598609
     42 C15         7.0070   -3.0240    1.5840 c3        1 MOL     -0.306292
     43 C16         7.1740   -1.5180    1.4870 c         1 MOL      0.809226
     44 O7          8.2510   -0.9960    1.0550 o         1 MOL     -0.737330
     45 O8          6.3060   -0.7660    1.9160 o         1 MOL     -0.737330
     46 H19         5.5920   -1.8280   -0.3600 hn        1 MOL      0.301954
     47 H20         7.4650   -3.8820   -0.2680 h1        1 MOL      0.054733
     48 H21         7.8700   -3.4710    2.0830 hc        1 MOL      0.094180
     49 H22         6.2320   -3.3090    2.2950 hc        1 MOL      0.094180
     50 N4          4.6380   -5.0900    1.0420 n         1 MOL     -0.400921
     51 C17         3.6140   -4.1310    1.3070 c3        1 MOL      0.048316
     52 C18         3.6810   -3.6930    2.8040 c         1 MOL      0.519820
     53 O9          4.3110   -4.3670    3.5920 o         1 MOL     -0.579685
     54 H23         4.3730   -6.0540    1.1660 hn        1 MOL      0.275478
     55 H24         2.7100   -4.7070    1.1080 h1        1 MOL      0.018168
     56 H25         3.8020   -3.2960    0.6320 h1        1 MOL      0.018168
     57 N5          3.1240   -2.6360    3.2950 n         1 MOL     -0.429473
     58 C19         1.9010   -1.9310    2.7900 c3        1 MOL      0.347314
     59 C20         2.0990   -1.2610    1.3760 c         1 MOL      0.105214
     60 O10         3.2010   -0.9150    0.9760 o         1 MOL     -0.499479
     61 C21         1.6230   -0.7700    3.7210 c3        1 MOL     -0.538733
     62 C22         2.7310    0.1870    4.1040 c         1 MOL      0.804283
     63 O11         3.0570    1.0360    3.2690 o         1 MOL     -0.681100
     64 O12         3.3480    0.1080    5.1860 o         1 MOL     -0.681100
     65 H26         3.3880   -2.3900    4.2480 hn        1 MOL      0.300474
     66 H27         1.0720   -2.6280    2.6780 h1        1 MOL     -0.033004
     67 H28         1.2750   -1.2910    4.6160 hc        1 MOL      0.109558
     68 H29         0.7690   -0.1940    3.3660 hc        1 MOL      0.109558
     69 N6          1.0040   -1.0550    0.5910 n         1 MOL     -0.226078
     70 C23        -0.3980   -1.4420    0.8870 c3        1 MOL     -0.031123
     71 C24        -0.9300   -2.6320    0.1690 c         1 MOL      0.618257
     72 O13        -0.4330   -3.0510   -0.8610 o         1 MOL     -0.552355
     73 H30         1.0870   -0.5880   -0.3000 hn        1 MOL      0.297308
     74 H31        -1.1090   -0.6400    0.7010 h1        1 MOL      0.084726
     75 H32        -0.5750   -1.5420    1.9630 h1        1 MOL      0.084726
     76 N7         -2.0560   -3.1680    0.6440 n         1 MOL     -0.519988
     77 C25        -2.7500   -4.4480    0.2340 c3        1 MOL      0.058485
     78 C26        -3.6970   -4.3860   -0.9350 c         1 MOL      0.342689
     79 O14        -4.1120   -5.4040   -1.4720 o         1 MOL     -0.509417
     80 C27        -3.3410   -5.1490    1.4610 c3        1 MOL     -0.069889
     81 C28        -4.4540   -4.3350    2.2670 c3        1 MOL     -0.069784
     82 C29        -5.6350   -3.8340    1.4110 c         1 MOL      0.426765
     83 N8         -6.4090   -4.7690    0.8180 n         1 MOL     -0.644025
     84 O15        -5.7500   -2.6210    1.1540 o         1 MOL     -0.485302
     85 H33        -2.3290   -2.8610    1.5630 hn        1 MOL      0.299655
     86 H34        -2.0280   -5.1320   -0.2110 h1        1 MOL      0.124262
     87 H35        -2.5300   -5.3820    2.1480 hc        1 MOL      0.041456
     88 H36        -3.7670   -6.1030    1.1440 hc        1 MOL      0.041456
     89 H37        -3.9500   -3.4610    2.6760 hc        1 MOL      0.036391
     90 H38        -4.8590   -4.9820    3.0480 hc        1 MOL      0.036391
     91 H39        -6.3190   -5.7100    1.1850 hn        1 MOL      0.342019
     92 H40        -7.0860   -4.5600    0.1040 hn        1 MOL      0.342019
     93 N9         -4.0840   -3.1600   -1.4020 n         1 MOL     -0.117887
     94 C30        -4.6030   -2.8470   -2.7320 c3        1 MOL     -0.144411
     95 C31        -5.8620   -1.9980   -2.7500 c         1 MOL      0.441961
     96 O16        -6.5500   -1.8990   -3.7870 o         1 MOL     -0.546749
     97 C32        -3.5950   -2.2410   -3.6330 c3        1 MOL      0.219734
     98 C33        -2.4830   -3.1960   -4.0800 c3        1 MOL     -0.272831
     99 C34        -2.9650   -0.9600   -3.0380 c3        1 MOL     -0.272831
    100 H41        -3.6990   -2.4170   -0.8440 hn        1 MOL      0.165590
    101 H42        -4.8620   -3.7620   -3.2550 h1        1 MOL      0.112324
    102 H43        -4.1700   -1.9150   -4.5040 hc        1 MOL     -0.004495
    103 H44        -1.8050   -2.7030   -4.7700 hc        1 MOL      0.074902
    104 H45        -1.8230   -3.5730   -3.2970 hc        1 MOL      0.074902
    105 H46        -2.7970   -4.0830   -4.6260 hc        1 MOL      0.074902
    106 H47        -2.2560   -0.6480   -3.8060 hc        1 MOL      0.074902
    107 H48        -3.7300   -0.1740   -2.9920 hc        1 MOL      0.074902
    108 H49        -2.4850   -1.1620   -2.0850 hc        1 MOL      0.074902
    109 N10        -6.2930   -1.3340   -1.6210 n         1 MOL     -0.223716
    110 C35        -7.4940   -0.5210   -1.5240 c3        1 MOL     -0.025795
    111 C36        -7.2630    0.9280   -1.0240 c         1 MOL      0.517060
    112 O17        -8.2140    1.7040   -0.9390 o         1 MOL     -0.539492
    113 C37        -8.4400   -1.2240   -0.5660 c3        1 MOL     -0.231582
    114 C38        -8.9380   -2.5680   -1.0120 c         1 MOL      0.634178
    115 N11        -9.3550   -2.8060   -2.2770 n         1 MOL     -0.789639
    116 O18        -8.9510   -3.4760   -0.2110 o         1 MOL     -0.575112
    117 H50        -5.7000   -1.3860   -0.8080 hn        1 MOL      0.263276
    118 H51        -7.8660   -0.4360   -2.5470 h1        1 MOL      0.092867
    119 H52        -9.3250   -0.5920   -0.5400 hc        1 MOL      0.100252
    120 H53        -8.0820   -1.3880    0.4570 hc        1 MOL      0.100252
    121 H54        -9.2220   -2.1140   -2.9970 hn        1 MOL      0.368300
    122 H55        -9.7370   -3.7320   -2.4100 hn        1 MOL      0.368300
    123 N12        -6.0340    1.3080   -0.5160 n         1 MOL     -0.483618
    124 C39        -5.8720    2.5370    0.2730 c3        1 MOL      0.383862
    125 C40        -4.4620    3.0860    0.2410 c         1 MOL      0.134432
    126 O19        -3.4840    2.3810   -0.0640 o         1 MOL     -0.395520
    127 C41        -6.2410    2.2690    1.7450 c3        1 MOL     -0.025047
    128 C42        -5.5850    1.0870    2.4520 ca        1 MOL     -0.048352
    129 C43        -6.3030    0.0370    2.9850 ca        1 MOL     -0.067160
    130 C44        -4.1680    1.1960    2.7620 ca        1 MOL     -0.067160
    131 C45        -5.6910   -0.9430    3.8480 ca        1 MOL     -0.273263
    132 C46        -3.5860    0.2450    3.5750 ca        1 MOL     -0.273263
    133 C47        -4.3530   -0.7860    4.1780 ca        1 MOL      0.311409
    134 O20        -3.7340   -1.6800    4.9990 oh        1 MOL     -0.463304
    135 H56        -5.3060    0.6220   -0.6440 hn        1 MOL      0.192690
    136 H57        -6.5210    3.3560   -0.0310 h1        1 MOL     -0.006844
    137 H58        -7.3290    2.2890    1.8410 hc        1 MOL      0.026452
    138 H59        -6.0890    3.1610    2.3570 hc        1 MOL      0.026452
    139 H60        -7.3640   -0.0690    2.7930 ha        1 MOL      0.078057
    140 H61        -3.5850    2.0520    2.4600 ha        1 MOL      0.078057
    141 H62        -6.2260   -1.7790    4.2740 ha        1 MOL      0.140926
    142 H63        -2.5420    0.2520    3.8750 ha        1 MOL      0.140926
    143 H64        -4.3380   -2.3270    5.3530 ho        1 MOL      0.332348
    144 N13        -4.2960    4.3130    0.6590 n         1 MOL     -0.268330
    145 C48        -2.9700    5.0260    0.8000 c3        1 MOL     -0.029447
    146 C49        -1.9650    5.1780   -0.3230 c         1 MOL      0.566548
    147 O21        -1.4460    6.2930   -0.5890 o         1 MOL     -0.535144
    148 C50        -2.4050    4.5440    2.1520 c3        1 MOL      0.042254
    149 C51        -1.3910    5.5640    2.7920 c3        1 MOL     -0.427202
    150 C52        -2.0920    6.7760    3.4430 c         1 MOL      0.720758
    151 O22        -1.6190    7.2120    4.5050 o         1 MOL     -0.724991
    152 O23        -3.1110    7.3690    2.9530 o         1 MOL     -0.724991
    153 H65        -5.1390    4.8450    0.8400 hn        1 MOL      0.259407
    154 H66        -3.3310    6.0440    0.9180 h1        1 MOL      0.032419
    155 H67        -1.8080    3.6330    2.0410 hc        1 MOL      0.071642
    156 H68        -3.2460    4.4930    2.8380 hc        1 MOL      0.071642
    157 H69        -0.6520    5.8900    2.0630 hc        1 MOL      0.128211
    158 H70        -0.8180    4.9820    3.5080 hc        1 MOL      0.128211
    159 N14        -1.6600    4.1060   -1.1030 n         1 MOL     -0.391634
    160 C53        -0.5810    3.9680   -2.1160 c3        1 MOL     -0.113980
    161 C54        -0.9980    4.5810   -3.4780 c         1 MOL      0.456822
    162 O24        -0.1910    4.7060   -4.3880 o         1 MOL     -0.543687
    163 C55        -0.1030    2.5330   -2.1690 c3        1 MOL     -0.000179
    164 C56         0.2750    1.8890   -0.8110 c3        1 MOL      0.456232
    165 C57         1.3550    2.6030    0.0180 c         1 MOL      0.590925
    166 O25         1.2750    3.8110    0.3260 o         1 MOL     -0.660115
    167 O26         2.3400    1.8990    0.3630 o         1 MOL     -0.660115
    168 H71        -2.2110    3.2590   -1.0230 hn        1 MOL      0.210755
    169 H72         0.2220    4.6170   -1.7670 h1        1 MOL      0.178980
    170 H73         0.7810    2.4020   -2.7920 hc        1 MOL     -0.028156
    171 H74        -0.8930    1.9170   -2.5960 hc        1 MOL     -0.028156
    172 H75         0.5890    0.8730   -1.0360 hc        1 MOL     -0.180196
    173 H76        -0.6220    1.8330   -0.1870 hc        1 MOL     -0.180196
    174 N15        -2.2110    5.1200   -3.4990 n         1 MOL     -0.216677
    175 C58        -2.7220    5.8600   -4.5970 c3        1 MOL     -0.092068
    176 H77        -2.8600    6.9010   -4.3000 h1        1 MOL      0.049663
    177 H78        -2.0200    5.8100   -5.4290 h1        1 MOL      0.049663
    178 H79        -3.6810    5.4400   -4.9040 h1        1 MOL      0.049663
    179 H80        -2.7210    5.1140   -2.6340 hn        1 MOL      0.214892
    180 Ca1         4.6480    1.3170    1.0730 Ca        1 MOL      1.807565
    181 O27         4.0810    4.0660    0.8770 oh        1 MOL     -0.873636
    182 H81         4.3550    4.0990   -0.0430 ho        1 MOL      0.417242
    183 H82         3.1260    4.1290    0.8450 ho        1 MOL      0.417242
    184 O28         5.8180    2.1190    3.2280 oh        1 MOL     -0.873636
    185 H83         6.7100    2.3360    2.9290 ho        1 MOL      0.417242
    186 H84         5.7780    2.4710    4.1180 ho        1 MOL      0.417242
@<TRIPOS>BOND
     1    1    2 1   
     2    1    4 1   
     3    1    5 1   
     4    1    6 1   
     5    2    3 2   
     6    2    7 1   
     7    7    8 1   
     8    7   15 1   
     9    8    9 1   
    10    8   11 1   
    11    8   16 1   
    12    9   10 2   
    13    9   19 1   
    14   11   12 1   
    15   11   17 1   
    16   11   18 1   
    17   12   13 1   
    18   12   14 1   
    19   19   20 1   
    20   19   27 1   
    21   20   21 1   
    22   20   23 1   
    23   20   28 1   
    24   21   22 2   
    25   21   38 1   
    26   23   24 1   
    27   23   25 1   
    28   23   29 1   
    29   24   26 1   
    30   24   30 1   
    31   24   31 1   
    32   25   32 1   
    33   25   33 1   
    34   25   34 1   
    35   26   35 1   
    36   26   36 1   
    37   26   37 1   
    38   38   39 1   
    39   38   46 1   
    40   39   40 1   
    41   39   42 1   
    42   39   47 1   
    43   40   41 2   
    44   40   50 1   
    45   42   43 1   
    46   42   48 1   
    47   42   49 1   
    48   43   44 1   
    49   43   45 1   
    50   50   51 1   
    51   50   54 1   
    52   51   52 1   
    53   51   55 1   
    54   51   56 1   
    55   52   53 2   
    56   52   57 1   
    57   57   58 1   
    58   57   65 1   
    59   58   59 1   
    60   58   61 1   
    61   58   66 1   
    62   59   60 2   
    63   59   69 1   
    64   61   62 1   
    65   61   67 1   
    66   61   68 1   
    67   62   63 1   
    68   62   64 1   
    69   69   70 1   
    70   69   73 1   
    71   70   71 1   
    72   70   74 1   
    73   70   75 1   
    74   71   72 2   
    75   71   76 1   
    76   76   77 1   
    77   76   85 1   
    78   77   78 1   
    79   77   80 1   
    80   77   86 1   
    81   78   79 2   
    82   78   93 1   
    83   80   81 1   
    84   80   87 1   
    85   80   88 1   
    86   81   82 1   
    87   81   89 1   
    88   81   90 1   
    89   82   83 1   
    90   82   84 2   
    91   83   91 1   
    92   83   92 1   
    93   93   94 1   
    94   93  100 1   
    95   94   95 1   
    96   94   97 1   
    97   94  101 1   
    98   95   96 2   
    99   95  109 1   
   100   97   98 1   
   101   97   99 1   
   102   97  102 1   
   103   98  103 1   
   104   98  104 1   
   105   98  105 1   
   106   99  106 1   
   107   99  107 1   
   108   99  108 1   
   109  109  110 1   
   110  109  117 1   
   111  110  111 1   
   112  110  113 1   
   113  110  118 1   
   114  111  112 2   
   115  111  123 1   
   116  113  114 1   
   117  113  119 1   
   118  113  120 1   
   119  114  115 1   
   120  114  116 2   
   121  115  121 1   
   122  115  122 1   
   123  123  124 1   
   124  123  135 1   
   125  124  125 1   
   126  124  127 1   
   127  124  136 1   
   128  125  126 2   
   129  125  144 1   
   130  127  128 1   
   131  127  137 1   
   132  127  138 1   
   133  128  129 ar  
   134  128  130 ar  
   135  129  131 ar  
   136  129  139 1   
   137  130  132 ar  
   138  130  140 1   
   139  131  133 ar  
   140  131  141 1   
   141  132  133 ar  
   142  132  142 1   
   143  133  134 1   
   144  134  143 1   
   145  144  145 1   
   146  144  153 1   
   147  145  146 1   
   148  145  148 1   
   149  145  154 1   
   150  146  147 2   
   151  146  159 1   
   152  148  149 1   
   153  148  155 1   
   154  148  156 1   
   155  149  150 1   
   156  149  157 1   
   157  149  158 1   
   158  150  151 1   
   159  150  152 1   
   160  159  160 1   
   161  159  168 1   
   162  160  161 1   
   163  160  163 1   
   164  160  169 1   
   165  161  162 2   
   166  161  174 1   
   167  163  164 1   
   168  163  170 1   
   169  163  171 1   
   170  164  165 1   
   171  164  172 1   
   172  164  173 1   
   173  165  166 1   
   174  165  167 1   
   175  174  175 1   
   176  174  179 1   
   177  175  176 1   
   178  175  177 1   
   179  175  178 1   
   180  181  182 1   
   181  181  183 1   
   182  184  185 1   
   183  184  186 1   
@<TRIPOS>SUBSTRUCTURE
     1 MOL         1 TEMP              0 ****  ****    0 ROOT
