@<TRIPOS>MOLECULE
MOL
  181   177     1     0     0
SMALL
resp


@<TRIPOS>ATOM
      1 C1         -9.8940    6.2050   -0.2470 c3        1 MOL     -0.256879
      2 C2         -9.2400    4.8320   -0.5420 c         1 MOL      0.694561
      3 O1         -8.1980    4.8410   -1.2300 o         1 MOL     -0.574563
      4 H1         -9.1810    6.8420    0.2760 hc        1 MOL      0.054828
      5 H2        -10.1850    6.6790   -1.1850 hc        1 MOL      0.054828
      6 H3        -10.7770    6.0610    0.3770 hc        1 MOL      0.054828
      7 N1         -9.8790    3.6740   -0.3560 n         1 MOL     -0.596435
      8 C3        -11.0090    3.3290    0.5330 c3        1 MOL      0.189237
      9 C4        -11.9350    2.3110   -0.1480 c         1 MOL      0.525499
     10 O2        -11.9310    2.1990   -1.3670 o         1 MOL     -0.485388
     11 C5        -10.4870    2.9510    1.9750 c3        1 MOL     -0.429024
     12 C6         -9.4510    1.8480    1.9810 c         1 MOL      0.682372
     13 O3         -9.8720    0.6880    1.7980 o         1 MOL     -0.681938
     14 O4         -8.2160    2.1030    1.9750 o         1 MOL     -0.681938
     15 H4         -9.4150    2.9720   -0.9140 hn        1 MOL      0.423635
     16 H5        -11.6320    4.2030    0.7080 h1        1 MOL      0.055275
     17 H6        -11.3300    2.6080    2.5720 hc        1 MOL      0.090918
     18 H7         -9.9940    3.8680    2.3060 hc        1 MOL      0.090918
     19 N2        -12.6940    1.4970    0.6140 n         1 MOL     -0.695380
     20 C7        -13.4130    0.2560    0.2770 c3        1 MOL      0.576898
     21 C8        -12.6080   -0.7670   -0.6120 c         1 MOL      0.243843
     22 O5        -13.2620   -1.6390   -1.2560 o         1 MOL     -0.559752
     23 C9        -14.8210    0.5260   -0.2430 c3        1 MOL     -0.366870
     24 H8        -12.5890    1.6010    1.6130 hn        1 MOL      0.326315
     25 H9        -13.5490   -0.3170    1.1970 h1        1 MOL     -0.045977
     26 H10       -15.3260    0.9130    0.6500 hc        1 MOL      0.080495
     27 H11       -14.7450    1.3040   -0.9990 hc        1 MOL      0.080495
     28 H12       -15.3340   -0.3630   -0.6120 hc        1 MOL      0.080495
     29 N3        -11.3160   -0.7330   -0.5410 n         1 MOL      0.044943
     30 C10       -10.3480   -1.6190   -1.1990 c3        1 MOL      0.078195
     31 C11        -9.5330   -2.4670   -0.1270 c         1 MOL      0.382753
     32 O6         -9.5130   -2.1060    1.0570 o         1 MOL     -0.538871
     33 C12        -9.4100   -0.8140   -2.1810 c3        1 MOL     -0.143555
     34 C13        -8.6970    0.4010   -1.5530 c         1 MOL      0.834786
     35 O7         -8.7780    1.5160   -2.0090 o         1 MOL     -0.726513
     36 O8         -7.8950    0.1680   -0.5890 o         1 MOL     -0.726513
     37 H13       -10.9090   -0.0660    0.1030 hn        1 MOL     -0.036964
     38 H14       -10.7810   -2.4070   -1.8100 h1        1 MOL      0.006314
     39 H15       -10.0890   -0.5550   -2.9920 hc        1 MOL      0.029936
     40 H16        -8.5780   -1.4270   -2.5210 hc        1 MOL      0.029936
     41 N4         -8.8930   -3.4900   -0.7070 n         1 MOL     -0.324991
     42 C14        -7.7620   -4.2840   -0.1240 c3        1 MOL     -0.204593
     43 C15        -6.3940   -3.5230    0.1030 c         1 MOL      0.846827
     44 O9         -6.4360   -2.3520    0.1710 o         1 MOL     -0.635401
     45 H17        -9.0490   -3.6000   -1.6990 hn        1 MOL      0.299587
     46 H18        -7.5610   -5.0630   -0.8600 h1        1 MOL      0.077954
     47 H19        -7.9400   -4.6890    0.8680 h1        1 MOL      0.077954
     48 N5         -5.3110   -4.1970    0.1430 n         1 MOL     -0.651506
     49 C16        -3.9830   -3.5920    0.5090 c3        1 MOL      0.184756
     50 C17        -3.4390   -2.7860   -0.6950 c         1 MOL      0.565749
     51 O10        -3.7140   -3.0310   -1.8430 o         1 MOL     -0.541541
     52 C18        -3.1080   -4.7630    0.9820 c3        1 MOL     -0.519049
     53 C19        -1.7960   -4.3080    1.5900 c         1 MOL      0.656584
     54 N6         -0.6680   -4.2960    0.9290 n         1 MOL     -0.705573
     55 O11        -1.7190   -3.8500    2.7290 o         1 MOL     -0.557767
     56 H20        -5.3880   -5.2050    0.1280 hn        1 MOL      0.315936
     57 H21        -4.2720   -2.9870    1.3730 h1        1 MOL      0.080081
     58 H22        -2.9330   -5.5250    0.2250 hc        1 MOL      0.161223
     59 H23        -3.5970   -5.2140    1.8440 hc        1 MOL      0.161223
     60 H24        -0.5150   -4.8800    0.1220 hn        1 MOL      0.356458
     61 H25         0.1590   -3.9370    1.3910 hn        1 MOL      0.356458
     62 N7         -2.7020   -1.7730   -0.4220 n         1 MOL     -0.373494
     63 C20        -1.9190   -1.0770   -1.4580 c3        1 MOL     -0.059819
     64 C21        -1.2200    0.1420   -0.9060 c         1 MOL      0.624568
     65 O12        -1.2790    0.5170    0.2190 o         1 MOL     -0.523116
     66 H26        -2.5300   -1.5580    0.5470 hn        1 MOL      0.258827
     67 H27        -2.5270   -0.8300   -2.3320 h1        1 MOL      0.099251
     68 H28        -1.1640   -1.8000   -1.7540 h1        1 MOL      0.099251
     69 N8         -0.3240    0.7280   -1.7240 n         1 MOL     -0.510668
     70 C22         0.0630    0.3190   -3.0730 c3        1 MOL     -0.093274
     71 C23         1.5270    0.1210   -3.1680 c         1 MOL      0.558320
     72 O13         2.0450   -0.4540   -4.0820 o         1 MOL     -0.591504
     73 C24        -0.2920    1.3920   -4.1410 c3        1 MOL      0.314675
     74 C25        -1.7850    1.6790   -4.2160 c3        1 MOL     -0.351164
     75 O14         0.3990    2.5910   -3.8350 oh        1 MOL     -0.614498
     76 H29         0.1550    1.5440   -1.3610 hn        1 MOL      0.348874
     77 H30        -0.4750   -0.5750   -3.4100 h1        1 MOL      0.089645
     78 H31         0.0270    1.0960   -5.1330 h1        1 MOL      0.018286
     79 H32         0.5080    3.0540   -4.6600 ho        1 MOL      0.410444
     80 H33        -2.3770    0.8270   -3.8940 hc        1 MOL      0.096706
     81 H34        -2.0110    2.4570   -3.4830 hc        1 MOL      0.096706
     82 H35        -2.1230    2.0840   -5.1690 hc        1 MOL      0.096706
     83 N9          2.3210    0.5530   -2.1990 n         1 MOL     -0.260878
     84 C26         3.6920    0.3260   -2.0310 c3        1 MOL     -0.060840
     85 C27         3.9900    0.1460   -0.5160 c         1 MOL      0.467992
     86 O15         3.2890    0.6190    0.3720 o         1 MOL     -0.511111
     87 C28         4.3970    1.5570   -2.5890 c3        1 MOL      0.175062
     88 C29         4.0710    2.8520   -1.8210 c3        1 MOL     -0.020696
     89 C30         4.2130    1.7180   -4.0210 c3        1 MOL     -0.065256
     90 C31         5.1000    3.9620   -2.1000 c3        1 MOL     -0.186610
     91 H36         1.8830    1.0470   -1.4360 hn        1 MOL      0.151404
     92 H37         4.0010   -0.5480   -2.5970 h1        1 MOL      0.158082
     93 H38         5.4480    1.2770   -2.4780 hc        1 MOL      0.012155
     94 H39         4.0560    2.6240   -0.7580 hc        1 MOL      0.018285
     95 H40         3.0940    3.1980   -2.1480 hc        1 MOL      0.018285
     96 H41         4.5270    0.8080   -4.5310 hc        1 MOL      0.003244
     97 H42         3.2200    2.0430   -4.3570 hc        1 MOL      0.003244
     98 H43         4.9000    2.4530   -4.4510 hc        1 MOL      0.003244
     99 H44         5.0090    4.7460   -1.3550 hc        1 MOL      0.037927
    100 H45         6.0920    3.5100   -2.1280 hc        1 MOL      0.037927
    101 H46         4.8630    4.4520   -3.0500 hc        1 MOL      0.037927
    102 N10         4.9070   -0.8130   -0.1480 n         1 MOL     -0.386691
    103 C32         5.8990   -1.5600   -0.8560 c3        1 MOL     -0.061460
    104 C33         7.1790   -1.5410   -0.0270 c         1 MOL      0.812847
    105 O16         7.2030   -1.9630    1.1200 o         1 MOL     -0.570722
    106 C34         5.4090   -2.9260   -1.3400 c3        1 MOL     -0.222091
    107 C35         6.3760   -3.7510   -2.2100 c         1 MOL      0.722024
    108 O17         6.8160   -3.4040   -3.3290 o         1 MOL     -0.726728
    109 O18         6.8040   -4.7580   -1.6590 o         1 MOL     -0.726728
    110 H47         5.0660   -1.0530    0.8200 hn        1 MOL      0.292035
    111 H48         6.1000   -0.9270   -1.7180 h1        1 MOL     -0.021873
    112 H49         4.4770   -2.8380   -1.8940 hc        1 MOL      0.038443
    113 H50         5.1910   -3.4790   -0.4240 hc        1 MOL      0.038443
    114 N11         8.3440   -1.1880   -0.6850 n         1 MOL     -0.688338
    115 C36         9.7760   -1.1350   -0.1620 c3        1 MOL      0.397531
    116 C37        10.5720   -0.0850   -0.9700 c         1 MOL      0.134113
    117 O19        10.5040    0.0120   -2.2130 o         1 MOL     -0.477459
    118 C38        10.4570   -2.5170   -0.1950 c3        1 MOL     -0.181381
    119 C39        11.9010   -2.4710    0.2370 ca        1 MOL      0.070755
    120 C40        12.9530   -2.2820   -0.7130 ca        1 MOL     -0.167211
    121 C41        12.2280   -2.7890    1.5610 ca        1 MOL     -0.167211
    122 C42        14.3000   -2.2810   -0.2560 ca        1 MOL     -0.104555
    123 C43        13.5650   -2.8980    2.0190 ca        1 MOL     -0.104555
    124 C44        14.5670   -2.5980    1.0530 ca        1 MOL     -0.134673
    125 H51         8.1920   -1.0830   -1.6810 hn        1 MOL      0.326329
    126 H52         9.6440   -0.7880    0.8620 h1        1 MOL     -0.030041
    127 H53        10.3730   -3.0250   -1.1570 hc        1 MOL      0.107776
    128 H54         9.8810   -3.1760    0.4620 hc        1 MOL      0.107776
    129 H55        12.7440   -2.0190   -1.7400 ha        1 MOL      0.128836
    130 H56        11.4940   -2.9220    2.3450 ha        1 MOL      0.128836
    131 H57        15.1210   -2.0610   -0.9110 ha        1 MOL      0.106513
    132 H58        13.6670   -3.1820    3.0550 ha        1 MOL      0.106513
    133 H59        15.5980   -2.6500    1.3630 ha        1 MOL      0.079537
    134 N12        11.4440    0.6760   -0.2750 n         1 MOL      0.182999
    135 C45        11.6310    0.8560    1.1710 c3        1 MOL      0.016116
    136 C46        10.3760    1.4140    1.8430 c         1 MOL      0.386135
    137 O20        10.3130    1.4110    3.0700 o         1 MOL     -0.508301
    138 C47        12.8980    1.7010    1.3980 c3        1 MOL     -0.141876
    139 C48        12.8450    2.6120    0.1960 c3        1 MOL      0.034671
    140 C49        12.2910    1.6500   -0.8910 c3        1 MOL     -0.171088
    141 H60        11.8040   -0.1580    1.5380 h1        1 MOL      0.046591
    142 H61        12.9150    2.2570    2.3290 hc        1 MOL      0.049928
    143 H62        13.6730    0.9360    1.4130 hc        1 MOL      0.049928
    144 H63        12.1840    3.4570    0.3940 hc        1 MOL      0.020145
    145 H64        13.8090    3.0130   -0.0820 hc        1 MOL      0.020145
    146 H65        11.7220    2.2090   -1.6290 h1        1 MOL      0.051931
    147 H66        13.1770    1.1720   -1.3220 h1        1 MOL      0.051931
    148 N13         9.3760    1.9110    1.0760 n         1 MOL     -0.254316
    149 C50         8.2670    2.7230    1.5720 c3        1 MOL      0.064392
    150 C51         8.1750    4.0130    0.7730 c         1 MOL      0.374638
    151 O21         8.7110    4.1300   -0.2880 o         1 MOL     -0.564470
    152 C52         6.8660    1.9920    1.4550 c3        1 MOL      0.260397
    153 C53         6.6590    0.8400    2.4630 c3        1 MOL     -0.309049
    154 C54         6.3500    1.3850    3.8810 c         1 MOL      0.708961
    155 O22         7.0960    1.0820    4.8440 o         1 MOL     -0.702017
    156 O23         5.4510    2.2800    3.9670 o         1 MOL     -0.702017
    157 H67         9.5010    1.8530    0.0770 hn        1 MOL      0.232634
    158 H68         8.2900    3.0310    2.6190 h1        1 MOL      0.120879
    159 H69         6.7800    1.6760    0.4200 hc        1 MOL     -0.057748
    160 H70         6.1760    2.8140    1.6260 hc        1 MOL     -0.057748
    161 H71         7.5760    0.2660    2.4610 hc        1 MOL      0.052342
    162 H72         5.7860    0.2290    2.2350 hc        1 MOL      0.052342
    163 N14         7.5770    5.1170    1.2430 n         1 MOL     -0.295808
    164 C55         7.1180    5.4920    2.5490 c3        1 MOL     -0.059412
    165 H73         7.7180    6.3240    2.9190 h1        1 MOL      0.048629
    166 H74         6.0730    5.7940    2.4950 h1        1 MOL      0.048629
    167 H75         7.2170    4.6440    3.2270 h1        1 MOL      0.048629
    168 H76         7.3940    5.8660    0.6010 hn        1 MOL      0.252314
    169 Ca1        -7.5580   -0.4520    1.8960 Ca        1 MOL      1.763852
    170 O24        -6.6030    0.5920    3.9970 oh        1 MOL     -0.822488
    171 H77        -5.7550    0.9550    4.2390 ho        1 MOL      0.395979
    172 H78        -7.1850    0.8230    4.7170 ho        1 MOL      0.395979
    173 O25        -6.9280   -2.9230    3.1660 oh        1 MOL     -0.822488
    174 H79        -7.6500   -3.2360    3.7140 ho        1 MOL      0.395979
    175 H80        -6.1460   -3.2900    3.5740 ho        1 MOL      0.395979
    176 O26        -4.9280   -0.2020    1.6090 oh        1 MOL     -0.822488
    177 H81        -4.1660   -0.6360    1.9930 ho        1 MOL      0.395979
    178 H82        -4.5800    0.5760    1.1800 ho        1 MOL      0.395979
    179 O27        -8.9960   -0.9330    4.0500 oh        1 MOL     -0.822488
    180 H83        -9.8780   -0.5430    4.0110 ho        1 MOL      0.395979
    181 H84        -9.0430   -1.5490    4.7800 ho        1 MOL      0.395979
@<TRIPOS>BOND
     1    1    2 1   
     2    1    4 1   
     3    1    5 1   
     4    1    6 1   
     5    2    3 2   
     6    2    7 1   
     7    7    8 1   
     8    7   15 1   
     9    8    9 1   
    10    8   11 1   
    11    8   16 1   
    12    9   10 2   
    13    9   19 1   
    14   11   12 1   
    15   11   17 1   
    16   11   18 1   
    17   12   13 1   
    18   12   14 1   
    19   19   20 1   
    20   19   24 1   
    21   20   21 1   
    22   20   23 1   
    23   20   25 1   
    24   21   22 2   
    25   21   29 1   
    26   23   26 1   
    27   23   27 1   
    28   23   28 1   
    29   29   30 1   
    30   29   37 1   
    31   30   31 1   
    32   30   33 1   
    33   30   38 1   
    34   31   32 2   
    35   31   41 1   
    36   33   34 1   
    37   33   39 1   
    38   33   40 1   
    39   34   35 1   
    40   34   36 1   
    41   41   42 1   
    42   41   45 1   
    43   42   43 1   
    44   42   46 1   
    45   42   47 1   
    46   43   44 2   
    47   43   48 1   
    48   48   49 1   
    49   48   56 1   
    50   49   50 1   
    51   49   52 1   
    52   49   57 1   
    53   50   51 2   
    54   50   62 1   
    55   52   53 1   
    56   52   58 1   
    57   52   59 1   
    58   53   54 1   
    59   53   55 2   
    60   54   60 1   
    61   54   61 1   
    62   62   63 1   
    63   62   66 1   
    64   63   64 1   
    65   63   67 1   
    66   63   68 1   
    67   64   65 2   
    68   64   69 1   
    69   69   70 1   
    70   69   76 1   
    71   70   71 1   
    72   70   73 1   
    73   70   77 1   
    74   71   72 2   
    75   71   83 1   
    76   73   74 1   
    77   73   75 1   
    78   73   78 1   
    79   74   80 1   
    80   74   81 1   
    81   74   82 1   
    82   75   79 1   
    83   83   84 1   
    84   83   91 1   
    85   84   85 1   
    86   84   87 1   
    87   84   92 1   
    88   85   86 2   
    89   85  102 1   
    90   87   88 1   
    91   87   89 1   
    92   87   93 1   
    93   88   90 1   
    94   88   94 1   
    95   88   95 1   
    96   89   96 1   
    97   89   97 1   
    98   89   98 1   
    99   90   99 1   
   100   90  100 1   
   101   90  101 1   
   102  102  103 1   
   103  102  110 1   
   104  103  104 1   
   105  103  106 1   
   106  103  111 1   
   107  104  105 2   
   108  104  114 1   
   109  106  107 1   
   110  106  112 1   
   111  106  113 1   
   112  107  108 1   
   113  107  109 1   
   114  114  115 1   
   115  114  125 1   
   116  115  116 1   
   117  115  118 1   
   118  115  126 1   
   119  116  117 2   
   120  116  134 1   
   121  118  119 1   
   122  118  127 1   
   123  118  128 1   
   124  119  120 ar  
   125  119  121 ar  
   126  120  122 ar  
   127  120  129 1   
   128  121  123 ar  
   129  121  130 1   
   130  122  124 ar  
   131  122  131 1   
   132  123  124 ar  
   133  123  132 1   
   134  124  133 1   
   135  134  135 1   
   136  134  140 1   
   137  135  136 1   
   138  135  138 1   
   139  135  141 1   
   140  136  137 2   
   141  136  148 1   
   142  138  139 1   
   143  138  142 1   
   144  138  143 1   
   145  139  140 1   
   146  139  144 1   
   147  139  145 1   
   148  140  146 1   
   149  140  147 1   
   150  148  149 1   
   151  148  157 1   
   152  149  150 1   
   153  149  152 1   
   154  149  158 1   
   155  150  151 2   
   156  150  163 1   
   157  152  153 1   
   158  152  159 1   
   159  152  160 1   
   160  153  154 1   
   161  153  161 1   
   162  153  162 1   
   163  154  155 1   
   164  154  156 1   
   165  163  164 1   
   166  163  168 1   
   167  164  165 1   
   168  164  166 1   
   169  164  167 1   
   170  170  171 1   
   171  170  172 1   
   172  173  174 1   
   173  173  175 1   
   174  176  177 1   
   175  176  178 1   
   176  179  180 1   
   177  179  181 1   
@<TRIPOS>SUBSTRUCTURE
     1 MOL         1 TEMP              0 ****  ****    0 ROOT
