@<TRIPOS>MOLECULE
MOL
  189   185     1     0     0
SMALL
resp


@<TRIPOS>ATOM
      1 C1         -6.3260   -3.5300    3.1420 c3        1 MOL     -0.144352
      2 C2         -5.0810   -3.4840    2.2280 c         1 MOL      0.528866
      3 O1         -4.5100   -2.3960    2.1500 o         1 MOL     -0.445698
      4 H1         -6.1060   -3.0240    4.0810 hc        1 MOL      0.006088
      5 H2         -7.1590   -3.0310    2.6460 hc        1 MOL      0.006088
      6 H3         -6.5910   -4.5680    3.3430 hc        1 MOL      0.006088
      7 N1         -4.9130   -4.4450    1.3070 n         1 MOL     -0.588108
      8 C3         -3.7730   -4.5020    0.3890 c3        1 MOL      0.110625
      9 C4         -2.3820   -4.2210    0.9380 c         1 MOL      0.516161
     10 O2         -1.3980   -4.1000    0.1460 o         1 MOL     -0.604816
     11 C5         -4.0450   -3.7320   -0.9150 c3        1 MOL     -0.126551
     12 C6         -5.4230   -3.9120   -1.5540 c         1 MOL      0.677099
     13 O3         -5.7040   -5.0380   -2.0020 o         1 MOL     -0.696641
     14 O4         -6.2720   -2.9330   -1.6970 o         1 MOL     -0.696641
     15 H4         -5.4940   -5.2760    1.3420 hn        1 MOL      0.330483
     16 H5         -3.7030   -5.5520    0.1080 h1        1 MOL      0.057612
     17 H6         -3.2890   -4.0530   -1.6330 hc        1 MOL      0.055193
     18 H7         -3.7900   -2.6890   -0.7150 hc        1 MOL      0.055193
     19 N2         -2.1640   -4.1200    2.2330 n         1 MOL     -0.201787
     20 C7         -0.8130   -3.8690    2.8320 c3        1 MOL     -0.042990
     21 C8         -0.0960   -5.2310    2.7500 c         1 MOL      0.350426
     22 O5         -0.5530   -6.1380    3.4680 o         1 MOL     -0.570973
     23 C9         -1.0560   -3.4850    4.3400 c3        1 MOL      0.137016
     24 C10        -1.7220   -2.1150    4.3560 c3        1 MOL      0.376695
     25 C11         0.2900   -3.5630    5.1750 c3        1 MOL     -0.385541
     26 C12        -2.4440   -1.8850    5.6800 c3        1 MOL     -0.312141
     27 H8         -2.9850   -4.4110    2.7340 hn        1 MOL      0.149605
     28 H9         -0.2030   -3.1150    2.3290 h1        1 MOL      0.154823
     29 H10        -1.6960   -4.2230    4.8200 hc        1 MOL      0.028124
     30 H11        -2.3930   -2.1810    3.5000 hc        1 MOL     -0.105872
     31 H12        -0.9370   -1.3820    4.2110 hc        1 MOL     -0.105872
     32 H13         1.1310   -3.0180    4.7620 hc        1 MOL      0.088078
     33 H14         0.1280   -3.3220    6.2290 hc        1 MOL      0.088078
     34 H15         0.6320   -4.5970    5.1960 hc        1 MOL      0.088078
     35 H16        -1.6920   -1.7540    6.4510 hc        1 MOL      0.060646
     36 H17        -2.9940   -0.9560    5.6040 hc        1 MOL      0.060646
     37 H18        -3.0410   -2.7900    5.8190 hc        1 MOL      0.060646
     38 N3          1.0420   -5.3950    2.0260 n         1 MOL     -0.237308
     39 C13         1.6840   -4.3950    1.2200 c3        1 MOL     -0.037395
     40 C14         2.4110   -5.0350    0.0130 c         1 MOL      0.441552
     41 O6          3.0920   -6.0500    0.1450 o         1 MOL     -0.531911
     42 C15         2.5330   -3.4550    2.0740 c3        1 MOL     -0.111946
     43 C16         3.2350   -2.4750    1.2450 c         1 MOL      0.618521
     44 O7          4.3780   -2.8030    0.9000 o         1 MOL     -0.611252
     45 O8          2.6680   -1.4230    1.0330 o         1 MOL     -0.611252
     46 H19         1.4890   -6.3050    2.0610 hn        1 MOL      0.254048
     47 H20         0.9390   -3.6980    0.8230 h1        1 MOL      0.048172
     48 H21         3.2660   -4.1490    2.4780 hc        1 MOL      0.017467
     49 H22         1.8870   -2.9550    2.7880 hc        1 MOL      0.017467
     50 N4          2.2540   -4.4600   -1.1720 n         1 MOL     -0.233082
     51 C17         2.6220   -5.0650   -2.4660 c3        1 MOL     -0.301959
     52 C18         4.0400   -4.6280   -2.9610 c         1 MOL      0.639785
     53 O9          4.3290   -5.0810   -4.0620 o         1 MOL     -0.594279
     54 H23         1.7360   -3.6010   -1.1860 hn        1 MOL      0.296268
     55 H24         1.9160   -4.5880   -3.1350 h1        1 MOL      0.146686
     56 H25         2.3430   -6.1120   -2.4630 h1        1 MOL      0.146686
     57 N5          4.8870   -3.8220   -2.3050 n         1 MOL     -0.457114
     58 C19         6.0660   -3.1220   -2.9130 c3        1 MOL      0.061797
     59 C20         7.1650   -2.7540   -1.9400 c         1 MOL      0.406070
     60 O10         8.3520   -2.8440   -2.2840 o         1 MOL     -0.568481
     61 C21         5.6460   -1.8830   -3.7030 c3        1 MOL     -0.048438
     62 C22         4.5190   -1.0840   -3.0950 c         1 MOL      0.684552
     63 O11         4.7830   -0.2130   -2.2700 o         1 MOL     -0.642467
     64 O12         3.3680   -1.2410   -3.4370 o         1 MOL     -0.642467
     65 H26         4.6190   -3.6460   -1.3400 hn        1 MOL      0.252620
     66 H27         6.5190   -3.6960   -3.7280 h1        1 MOL      0.074252
     67 H28         5.3670   -2.1060   -4.7350 hc        1 MOL     -0.004312
     68 H29         6.5360   -1.2610   -3.8100 hc        1 MOL     -0.004312
     69 N6          6.8050   -2.4120   -0.6670 n         1 MOL     -0.143389
     70 C23         7.7180   -1.9040    0.4090 c3        1 MOL     -0.297440
     71 C24         8.1250   -0.4290    0.2640 c         1 MOL      0.608078
     72 O13         8.8560    0.0780    1.1130 o         1 MOL     -0.621402
     73 H30         5.8160   -2.4620   -0.4710 hn        1 MOL      0.171140
     74 H31         8.6350   -2.4930    0.3300 h1        1 MOL      0.129801
     75 H32         7.2010   -2.0790    1.3500 h1        1 MOL      0.129801
     76 N7          7.6370    0.2650   -0.7620 n         1 MOL     -0.172626
     77 C25         7.6880    1.7460   -0.9720 c3        1 MOL      0.213518
     78 C26         7.3320    2.7200    0.2000 c         1 MOL      0.443513
     79 O14         7.6730    3.8880    0.0610 o         1 MOL     -0.522456
     80 C27         8.9250    2.0940   -1.7720 c3        1 MOL     -0.099921
     81 C28         9.0530    1.2420   -3.0230 c3        1 MOL      0.011494
     82 C29        10.0980    1.7130   -3.9890 c         1 MOL      0.645974
     83 N8         10.3240    0.9600   -5.0560 n         1 MOL     -0.831272
     84 O15        10.6510    2.8400   -3.9510 o         1 MOL     -0.582695
     85 H33         6.9010   -0.1450   -1.3140 hn        1 MOL      0.052823
     86 H34         6.8820    2.0020   -1.6640 h1        1 MOL      0.060884
     87 H35         9.7540    1.9100   -1.0870 hc        1 MOL      0.015456
     88 H36         8.8060    3.1460   -2.0260 hc        1 MOL      0.015456
     89 H37         8.1010    1.1650   -3.5690 hc        1 MOL      0.002920
     90 H38         9.3820    0.2230   -2.7980 hc        1 MOL      0.002920
     91 H39         9.8570    0.0660   -5.0950 hn        1 MOL      0.359421
     92 H40        10.8480    1.2890   -5.8580 hn        1 MOL      0.359421
     93 N9          6.6380    2.2670    1.2300 n         1 MOL     -0.424765
     94 C30         6.4430    3.1590    2.4400 c3        1 MOL      0.017678
     95 C31         4.9520    3.3580    2.7590 c         1 MOL      0.486236
     96 O16         4.6370    4.0990    3.7130 o         1 MOL     -0.561954
     97 C32         7.1940    2.6800    3.7120 c3        1 MOL      0.296053
     98 C33         6.7880    1.2810    4.2560 c3        1 MOL     -0.335298
     99 C34         8.7780    2.6810    3.5110 c3        1 MOL     -0.335298
    100 H41         6.1700    1.3730    1.1920 hn        1 MOL      0.306590
    101 H42         6.8960    4.1430    2.3140 h1        1 MOL      0.078616
    102 H43         6.8990    3.4110    4.4600 hc        1 MOL     -0.048870
    103 H44         5.7100    1.2750    4.3880 hc        1 MOL      0.075751
    104 H45         7.0430    0.5210    3.5200 hc        1 MOL      0.075751
    105 H46         7.2660    0.9800    5.1840 hc        1 MOL      0.075751
    106 H47         9.1600    3.6720    3.2930 hc        1 MOL      0.075751
    107 H48         9.2980    2.3800    4.4130 hc        1 MOL      0.075751
    108 H49         9.1570    2.0250    2.7180 hc        1 MOL      0.075751
    109 N10         4.0690    2.7120    1.9940 n         1 MOL     -0.375016
    110 C35         2.6300    2.6140    2.1870 c3        1 MOL      0.146610
    111 C36         1.8740    2.6520    0.8870 c         1 MOL      0.496207
    112 O17         2.5180    2.3640   -0.1620 o         1 MOL     -0.486443
    113 C37         2.4360    1.2320    2.9210 c3        1 MOL     -0.131357
    114 C38         0.9660    0.9200    3.1260 c         1 MOL      0.438095
    115 N11         0.4830   -0.0520    2.4320 n         1 MOL     -0.376633
    116 O18         0.2100    1.4550    3.9000 o         1 MOL     -0.571816
    117 H50         4.4380    2.1790    1.2110 hn        1 MOL      0.206071
    118 H51         2.1560    3.3910    2.7910 h1        1 MOL      0.040341
    119 H52         2.9600    1.2120    3.8820 hc        1 MOL      0.071590
    120 H53         2.8600    0.3890    2.3700 hc        1 MOL      0.071590
    121 H54         1.0350   -0.5630    1.7590 hn        1 MOL      0.210271
    122 H55        -0.4530   -0.3790    2.6360 hn        1 MOL      0.210271
    123 N12         0.5890    3.0480    0.8870 n         1 MOL     -0.468766
    124 C39        -0.3590    3.1070   -0.1570 c3        1 MOL      0.024774
    125 C40        -1.6450    3.8440    0.2840 c         1 MOL      0.555365
    126 O19        -2.1800    3.6280    1.4450 o         1 MOL     -0.589466
    127 C41        -0.5750    1.5900   -0.6160 c3        1 MOL     -0.130443
    128 C42        -1.6550    1.3240   -1.6570 ca        1 MOL      0.013818
    129 C43        -1.5870    1.9610   -2.9180 ca        1 MOL     -0.119669
    130 C44        -2.7470    0.4580   -1.2900 ca        1 MOL     -0.119669
    131 C45        -2.6270    1.7810   -3.8330 ca        1 MOL     -0.262197
    132 C46        -3.6410    0.1270   -2.3380 ca        1 MOL     -0.262197
    133 C47        -3.6180    0.8350   -3.5780 ca        1 MOL      0.330199
    134 O20        -4.6410    0.5740   -4.4630 oh        1 MOL     -0.532394
    135 H56         0.1960    3.3860    1.7500 hn        1 MOL      0.315117
    136 H57         0.0730    3.7210   -0.9510 h1        1 MOL      0.052435
    137 H58        -0.7600    0.9690    0.2600 hc        1 MOL      0.104237
    138 H59         0.3490    1.2630   -1.0890 hc        1 MOL      0.104237
    139 H60        -0.7880    2.5650   -3.3300 ha        1 MOL      0.138044
    140 H61        -2.9250   -0.0640   -0.3630 ha        1 MOL      0.138044
    141 H62        -2.5880    2.2650   -4.8030 ha        1 MOL      0.139924
    142 H63        -4.3870   -0.6160   -2.1350 ha        1 MOL      0.139924
    143 H64        -5.1630   -0.1540   -4.1160 ho        1 MOL      0.374250
    144 N13        -2.1220    4.5910   -0.6620 n         1 MOL     -0.489094
    145 C48        -3.2900    5.4400   -0.6120 c3        1 MOL      0.267404
    146 C49        -4.3720    5.1660   -1.6800 c         1 MOL      0.509779
    147 O21        -4.5010    5.8680   -2.6390 o         1 MOL     -0.556497
    148 C50        -2.9070    6.9130   -0.4660 c3        1 MOL      0.012505
    149 C51        -4.0560    7.7770    0.0580 c3        1 MOL     -0.173226
    150 C52        -3.7470    9.2470    0.1230 c         1 MOL      0.698709
    151 O22        -4.0870    9.9320   -0.9000 o         1 MOL     -0.683227
    152 O23        -3.4080    9.6990    1.2320 o         1 MOL     -0.683227
    153 H65        -1.7050    4.5630   -1.5800 hn        1 MOL      0.279339
    154 H66        -3.7890    5.2640    0.3420 h1        1 MOL      0.049172
    155 H67        -2.6000    7.2490   -1.4570 hc        1 MOL     -0.014197
    156 H68        -1.9670    6.9920    0.0870 hc        1 MOL     -0.014197
    157 H69        -4.4150    7.3530    1.0040 hc        1 MOL      0.046401
    158 H70        -4.9040    7.6280   -0.6100 hc        1 MOL      0.046401
    159 N14        -5.1050    4.0630   -1.7080 n         1 MOL     -0.421028
    160 C53        -5.2260    3.0640   -0.6110 c3        1 MOL     -0.057169
    161 C54        -5.7240    3.7170    0.7480 c         1 MOL      0.434274
    162 O24        -6.1740    4.8680    0.6950 o         1 MOL     -0.541656
    163 C55        -6.0720    1.7950   -0.9940 c3        1 MOL      0.140404
    164 C56        -7.5370    1.8670   -0.6850 c3        1 MOL     -0.166574
    165 C57        -8.0260    0.4040   -0.8600 c         1 MOL      0.617575
    166 O25        -8.0810   -0.4040    0.1160 o         1 MOL     -0.716180
    167 O26        -8.2570   -0.1100   -1.9760 o         1 MOL     -0.716180
    168 H71        -5.5990    3.8470   -2.5520 hn        1 MOL      0.295523
    169 H72        -4.1960    2.6980   -0.4990 h1        1 MOL      0.028068
    170 H73        -5.6850    0.9370   -0.4430 hc        1 MOL      0.012986
    171 H74        -5.8800    1.6290   -2.0570 hc        1 MOL      0.012986
    172 H75        -8.0990    2.4560   -1.4070 hc        1 MOL      0.043430
    173 H76        -7.7260    2.0610    0.3780 hc        1 MOL      0.043430
    174 N15        -5.5790    3.0460    1.8730 n         1 MOL     -0.076543
    175 C58        -5.9110    3.6490    3.1930 c3        1 MOL     -0.457624
    176 H77        -5.0050    3.7330    3.7920 h1        1 MOL      0.158148
    177 H78        -6.3400    4.6400    3.0440 h1        1 MOL      0.158148
    178 H79        -6.6320    3.0160    3.7110 h1        1 MOL      0.158148
    179 H80        -5.3560    2.0590    1.8260 hn        1 MOL      0.198651
    180 Ca1        -8.9320   -2.4620   -1.1550 Ca        1 MOL      1.573242
    181 O27       -10.2820   -2.8440   -3.3630 oh        1 MOL     -0.923016
    182 H81        -9.9530   -3.4640   -4.0210 ho        1 MOL      0.423057
    183 H82       -10.5610   -2.0840   -3.8740 ho        1 MOL      0.423057
    184 O28        -8.4770   -4.9810   -1.8610 oh        1 MOL     -0.923016
    185 H83        -8.8860   -5.3290   -2.6530 ho        1 MOL      0.423057
    186 H84        -7.5950   -5.3340   -1.8650 ho        1 MOL      0.423057
    187 O29       -11.2880   -0.6320   -1.3490 oh        1 MOL     -0.923016
    188 H85       -12.1670   -0.7480   -1.7060 ho        1 MOL      0.423057
    189 H86       -11.4340   -0.4320   -0.4250 ho        1 MOL      0.423057
@<TRIPOS>BOND
     1    1    2 1   
     2    1    4 1   
     3    1    5 1   
     4    1    6 1   
     5    2    3 2   
     6    2    7 1   
     7    7    8 1   
     8    7   15 1   
     9    8    9 1   
    10    8   11 1   
    11    8   16 1   
    12    9   10 2   
    13    9   19 1   
    14   11   12 1   
    15   11   17 1   
    16   11   18 1   
    17   12   13 1   
    18   12   14 1   
    19   19   20 1   
    20   19   27 1   
    21   20   21 1   
    22   20   23 1   
    23   20   28 1   
    24   21   22 2   
    25   21   38 1   
    26   23   24 1   
    27   23   25 1   
    28   23   29 1   
    29   24   26 1   
    30   24   30 1   
    31   24   31 1   
    32   25   32 1   
    33   25   33 1   
    34   25   34 1   
    35   26   35 1   
    36   26   36 1   
    37   26   37 1   
    38   38   39 1   
    39   38   46 1   
    40   39   40 1   
    41   39   42 1   
    42   39   47 1   
    43   40   41 2   
    44   40   50 1   
    45   42   43 1   
    46   42   48 1   
    47   42   49 1   
    48   43   44 1   
    49   43   45 1   
    50   50   51 1   
    51   50   54 1   
    52   51   52 1   
    53   51   55 1   
    54   51   56 1   
    55   52   53 2   
    56   52   57 1   
    57   57   58 1   
    58   57   65 1   
    59   58   59 1   
    60   58   61 1   
    61   58   66 1   
    62   59   60 2   
    63   59   69 1   
    64   61   62 1   
    65   61   67 1   
    66   61   68 1   
    67   62   63 1   
    68   62   64 1   
    69   69   70 1   
    70   69   73 1   
    71   70   71 1   
    72   70   74 1   
    73   70   75 1   
    74   71   72 2   
    75   71   76 1   
    76   76   77 1   
    77   76   85 1   
    78   77   78 1   
    79   77   80 1   
    80   77   86 1   
    81   78   79 2   
    82   78   93 1   
    83   80   81 1   
    84   80   87 1   
    85   80   88 1   
    86   81   82 1   
    87   81   89 1   
    88   81   90 1   
    89   82   83 1   
    90   82   84 2   
    91   83   91 1   
    92   83   92 1   
    93   93   94 1   
    94   93  100 1   
    95   94   95 1   
    96   94   97 1   
    97   94  101 1   
    98   95   96 2   
    99   95  109 1   
   100   97   98 1   
   101   97   99 1   
   102   97  102 1   
   103   98  103 1   
   104   98  104 1   
   105   98  105 1   
   106   99  106 1   
   107   99  107 1   
   108   99  108 1   
   109  109  110 1   
   110  109  117 1   
   111  110  111 1   
   112  110  113 1   
   113  110  118 1   
   114  111  112 2   
   115  111  123 1   
   116  113  114 1   
   117  113  119 1   
   118  113  120 1   
   119  114  115 1   
   120  114  116 2   
   121  115  121 1   
   122  115  122 1   
   123  123  124 1   
   124  123  135 1   
   125  124  125 1   
   126  124  127 1   
   127  124  136 1   
   128  125  126 2   
   129  125  144 1   
   130  127  128 1   
   131  127  137 1   
   132  127  138 1   
   133  128  129 ar  
   134  128  130 ar  
   135  129  131 ar  
   136  129  139 1   
   137  130  132 ar  
   138  130  140 1   
   139  131  133 ar  
   140  131  141 1   
   141  132  133 ar  
   142  132  142 1   
   143  133  134 1   
   144  134  143 1   
   145  144  145 1   
   146  144  153 1   
   147  145  146 1   
   148  145  148 1   
   149  145  154 1   
   150  146  147 2   
   151  146  159 1   
   152  148  149 1   
   153  148  155 1   
   154  148  156 1   
   155  149  150 1   
   156  149  157 1   
   157  149  158 1   
   158  150  151 1   
   159  150  152 1   
   160  159  160 1   
   161  159  168 1   
   162  160  161 1   
   163  160  163 1   
   164  160  169 1   
   165  161  162 2   
   166  161  174 1   
   167  163  164 1   
   168  163  170 1   
   169  163  171 1   
   170  164  165 1   
   171  164  172 1   
   172  164  173 1   
   173  165  166 1   
   174  165  167 1   
   175  174  175 1   
   176  174  179 1   
   177  175  176 1   
   178  175  177 1   
   179  175  178 1   
   180  181  182 1   
   181  181  183 1   
   182  184  185 1   
   183  184  186 1   
   184  187  188 1   
   185  187  189 1   
@<TRIPOS>SUBSTRUCTURE
     1 MOL         1 TEMP              0 ****  ****    0 ROOT
