@<TRIPOS>MOLECULE
MOL
  181   177     1     0     0
SMALL
resp


@<TRIPOS>ATOM
      1 C1          1.6350    6.7780   -2.4060 c3        1 MOL     -0.374955
      2 C2          2.8280    6.0690   -1.8360 c         1 MOL      0.763780
      3 O1          3.0620    6.3280   -0.6750 o         1 MOL     -0.579539
      4 H1          0.9830    7.0990   -1.5940 hc        1 MOL      0.088118
      5 H2          1.9660    7.6490   -2.9720 hc        1 MOL      0.088118
      6 H3          1.0900    6.1010   -3.0640 hc        1 MOL      0.088118
      7 N1          3.6640    5.3400   -2.5890 n         1 MOL     -0.709409
      8 C3          4.9530    4.7460   -2.1270 c3        1 MOL      0.357216
      9 C4          4.7550    3.8200   -0.8870 c         1 MOL      0.587102
     10 O2          3.9260    2.9340   -0.9370 o         1 MOL     -0.625675
     11 C5          5.7190    4.1300   -3.3390 c3        1 MOL     -0.225623
     12 C6          7.0350    3.3060   -2.8990 c         1 MOL      0.687842
     13 O3          7.7320    3.8250   -1.9430 o         1 MOL     -0.708237
     14 O4          7.3660    2.2570   -3.4950 o         1 MOL     -0.708237
     15 H4          3.3580    5.0910   -3.5220 hn        1 MOL      0.314695
     16 H5          5.5530    5.5790   -1.7580 h1        1 MOL     -0.019531
     17 H6          5.8390    4.8690   -4.1330 hc        1 MOL      0.012296
     18 H7          5.0160    3.3630   -3.6620 hc        1 MOL      0.012296
     19 N2          5.6070    3.9360    0.1780 n         1 MOL     -0.517182
     20 C7          5.5070    3.2050    1.4300 c3        1 MOL      0.293206
     21 C8          4.3680    3.7090    2.4230 c         1 MOL      0.507468
     22 O5          3.9730    4.8680    2.3930 o         1 MOL     -0.529536
     23 C9          6.8910    3.2570    2.0860 c3        1 MOL     -0.334605
     24 H8          6.2320    4.7340    0.0820 hn        1 MOL      0.267235
     25 H9          5.1910    2.2040    1.1630 h1        1 MOL      0.107599
     26 H10         7.3760    4.2320    2.0980 hc        1 MOL      0.083388
     27 H11         6.7640    2.9070    3.1120 hc        1 MOL      0.083388
     28 H12         7.5270    2.5770    1.5220 hc        1 MOL      0.083388
     29 N3          3.8900    2.8430    3.3630 n         1 MOL     -0.486013
     30 C10         4.3270    1.5360    3.7720 c3        1 MOL      0.106217
     31 C11         4.3700    0.5160    2.6450 c         1 MOL      0.284220
     32 O6          3.4030    0.3030    1.9080 o         1 MOL     -0.564687
     33 C12         3.4190    0.9430    4.8840 c3        1 MOL     -0.238319
     34 C13         1.9340    1.2470    4.6720 c         1 MOL      0.704949
     35 O7          1.4750    2.1840    5.3700 o         1 MOL     -0.676606
     36 O8          1.3120    0.4460    3.9420 o         1 MOL     -0.676606
     37 H13         3.3510    3.3990    4.0130 hn        1 MOL      0.312425
     38 H14         5.2870    1.4250    4.2770 h1        1 MOL      0.058759
     39 H15         3.9030    1.4010    5.7510 hc        1 MOL      0.049559
     40 H16         3.5680   -0.1290    4.9240 hc        1 MOL      0.049559
     41 N4          5.5050   -0.1970    2.5480 n         1 MOL     -0.290646
     42 C14         5.7500   -1.0620    1.4290 c3        1 MOL     -0.079532
     43 C15         6.4690   -0.5370    0.1680 c         1 MOL      0.701663
     44 O9          6.9400    0.5830    0.2630 o         1 MOL     -0.540565
     45 H17         6.1830   -0.0060    3.2640 hn        1 MOL      0.236124
     46 H18         4.8390   -1.5700    1.1110 h1        1 MOL      0.103102
     47 H19         6.3360   -1.9280    1.7590 h1        1 MOL      0.103102
     48 N5          6.6270   -1.3460   -0.8060 n         1 MOL     -0.628233
     49 C16         6.5410   -2.8310   -0.9330 c3        1 MOL      0.059257
     50 C17         5.4820   -3.4880   -1.7590 c         1 MOL      0.557529
     51 O10         5.2880   -4.6670   -1.7210 o         1 MOL     -0.486365
     52 C18         7.9380   -3.3160   -1.4040 c3        1 MOL     -0.238831
     53 C19         9.0970   -2.6870   -0.6580 c         1 MOL      0.634333
     54 N6          9.7540   -1.7300   -1.2560 n         1 MOL     -0.762811
     55 O11         9.4340   -3.0890    0.4840 o         1 MOL     -0.552761
     56 H20         7.1810   -0.9030   -1.5300 hn        1 MOL      0.327537
     57 H21         6.3640   -3.1390    0.1040 h1        1 MOL      0.069214
     58 H22         8.0210   -3.1460   -2.4770 hc        1 MOL      0.082291
     59 H23         7.9470   -4.3940   -1.2760 hc        1 MOL      0.082291
     60 H24         9.6620   -1.5400   -2.2480 hn        1 MOL      0.375280
     61 H25        10.5280   -1.2700   -0.8000 hn        1 MOL      0.375280
     62 N7          4.6160   -2.6370   -2.3910 n         1 MOL     -0.305960
     63 C20         3.6460   -2.9390   -3.4810 c3        1 MOL     -0.252442
     64 C21         2.4070   -3.8300   -3.0740 c         1 MOL      0.631672
     65 O12         1.8080   -4.4750   -3.9290 o         1 MOL     -0.586858
     66 H26         4.6690   -1.6450   -2.2430 hn        1 MOL      0.272848
     67 H27         4.1260   -3.5580   -4.2460 h1        1 MOL      0.114065
     68 H28         3.2780   -2.0290   -3.9660 h1        1 MOL      0.114065
     69 N8          2.1110   -3.8240   -1.7900 n         1 MOL     -0.338629
     70 C22         1.1440   -4.6620   -1.1740 c3        1 MOL     -0.051010
     71 C23         0.0290   -3.7760   -0.6840 c         1 MOL      0.388055
     72 O13         0.2080   -2.8850    0.1780 o         1 MOL     -0.448420
     73 C24         1.7710   -5.4110   -0.0140 c3        1 MOL      0.267961
     74 C25         2.4330   -6.6930   -0.4810 c3        1 MOL     -0.376262
     75 O14         2.8280   -4.5980    0.6450 oh        1 MOL     -0.604310
     76 H29         2.6870   -3.2620   -1.1770 hn        1 MOL      0.225163
     77 H30         0.6980   -5.4210   -1.8190 h1        1 MOL      0.113350
     78 H31         1.0940   -5.6210    0.8160 h1        1 MOL      0.081719
     79 H32         2.3910   -4.1050    1.3440 ho        1 MOL      0.365001
     80 H33         1.6900   -7.3290   -0.9700 hc        1 MOL      0.103290
     81 H34         3.2280   -6.5060   -1.1960 hc        1 MOL      0.103290
     82 H35         2.8010   -7.2690    0.3750 hc        1 MOL      0.103290
     83 N9         -1.1700   -4.1880   -1.1560 n         1 MOL     -0.433180
     84 C26        -2.4340   -3.4450   -0.9480 c3        1 MOL     -0.042530
     85 C27        -2.9320   -3.5810    0.5110 c         1 MOL      0.341679
     86 O15        -3.0680   -4.6710    1.0670 o         1 MOL     -0.532480
     87 C28        -3.5010   -3.8120   -1.9850 c3        1 MOL      0.299445
     88 C29        -4.7370   -2.8490   -1.8230 c3        1 MOL      0.144934
     89 C30        -2.8630   -3.8680   -3.3740 c3        1 MOL     -0.279451
     90 C31        -5.8610   -3.1160   -2.7500 c3        1 MOL     -0.120890
     91 H36        -1.2450   -5.0270   -1.7040 hn        1 MOL      0.287158
     92 H37        -2.1300   -2.4230   -1.1470 h1        1 MOL      0.140520
     93 H38        -3.8950   -4.8030   -1.7340 hc        1 MOL     -0.055806
     94 H39        -4.2600   -1.8730   -1.9050 hc        1 MOL     -0.050439
     95 H40        -5.0770   -3.0290   -0.7980 hc        1 MOL     -0.050439
     96 H41        -2.3010   -4.7990   -3.4780 hc        1 MOL      0.055930
     97 H42        -3.5980   -3.8270   -4.1820 hc        1 MOL      0.055930
     98 H43        -2.2090   -3.0200   -3.5320 hc        1 MOL      0.055930
     99 H44        -6.7820   -2.7500   -2.2930 hc        1 MOL      0.002389
    100 H45        -5.7450   -2.5710   -3.6890 hc        1 MOL      0.002389
    101 H46        -5.8480   -4.1760   -2.9940 hc        1 MOL      0.002389
    102 N10        -3.1600   -2.4380    1.1550 n         1 MOL     -0.034694
    103 C32        -3.8740   -2.3090    2.3880 c3        1 MOL      0.113830
    104 C33        -5.1850   -1.4870    2.2590 c         1 MOL      0.309363
    105 O16        -5.9940   -1.6780    3.1830 o         1 MOL     -0.510100
    106 C34        -2.9590   -1.7330    3.5040 c3        1 MOL     -0.253079
    107 C35        -1.6200   -2.5170    3.5900 c         1 MOL      0.688788
    108 O17        -1.5370   -3.6400    4.1340 o         1 MOL     -0.702336
    109 O18        -0.5960   -2.0020    3.1320 o         1 MOL     -0.702336
    110 H47        -2.9370   -1.5780    0.6680 hn        1 MOL      0.193348
    111 H48        -4.2530   -3.2710    2.7240 h1        1 MOL      0.069998
    112 H49        -3.4820   -1.9070    4.4400 hc        1 MOL      0.079103
    113 H50        -2.8850   -0.6680    3.2910 hc        1 MOL      0.079103
    114 N11        -5.4070   -0.7520    1.1240 n         1 MOL     -0.390889
    115 C36        -6.6300   -0.0000    0.9190 c3        1 MOL      0.408298
    116 C37        -6.4550    1.5000    0.4390 c         1 MOL      0.108220
    117 O19        -6.9820    1.8360   -0.6270 o         1 MOL     -0.435908
    118 C38        -7.6230   -0.7550    0.0760 c3        1 MOL     -0.127339
    119 C39        -9.0920   -0.2610    0.0450 ca        1 MOL      0.104662
    120 C40        -9.7330    0.0230    1.2600 ca        1 MOL     -0.157999
    121 C41        -9.9270   -0.3670   -1.0910 ca        1 MOL     -0.157999
    122 C42       -11.1380    0.1810    1.3690 ca        1 MOL     -0.130250
    123 C43       -11.2890   -0.0700   -1.0540 ca        1 MOL     -0.130250
    124 C44       -11.9210    0.1500    0.2340 ca        1 MOL     -0.120010
    125 H51        -4.6590   -0.6380    0.4660 hn        1 MOL      0.194494
    126 H52        -7.0680    0.0670    1.9150 h1        1 MOL     -0.039647
    127 H53        -7.7720   -1.7820    0.3940 hc        1 MOL      0.062416
    128 H54        -7.3310   -0.7000   -0.9680 hc        1 MOL      0.062416
    129 H55        -9.0770    0.1700    2.1050 ha        1 MOL      0.113753
    130 H56        -9.5520   -0.7100   -2.0460 ha        1 MOL      0.113753
    131 H57       -11.6340    0.3220    2.3100 ha        1 MOL      0.106552
    132 H58       -11.8500   -0.2330   -1.9620 ha        1 MOL      0.106552
    133 H59       -13.0060    0.1940    0.3180 ha        1 MOL      0.092535
    134 N12        -5.7070    2.3310    1.2020 n         1 MOL      0.103603
    135 C45        -5.2690    3.6430    0.7680 c3        1 MOL     -0.075856
    136 C46        -4.7780    3.7120   -0.6830 c         1 MOL      0.244559
    137 O20        -4.9940    4.7150   -1.2880 o         1 MOL     -0.437320
    138 C47        -4.0560    3.8340    1.6470 c3        1 MOL      0.118082
    139 C48        -4.4760    3.3830    2.9900 c3        1 MOL     -0.175956
    140 C49        -5.3510    2.1370    2.6080 c3        1 MOL     -0.122677
    141 H60        -6.0120    4.4170    0.9790 h1        1 MOL      0.078829
    142 H61        -3.2510    3.1650    1.3210 hc        1 MOL     -0.002229
    143 H62        -3.7270    4.8700    1.6980 hc        1 MOL     -0.002229
    144 H63        -3.6700    3.0850    3.6600 hc        1 MOL      0.077537
    145 H64        -5.1860    4.1230    3.3450 hc        1 MOL      0.077537
    146 H65        -4.6820    1.2870    2.7520 h1        1 MOL      0.082009
    147 H66        -6.2210    2.1450    3.2590 h1        1 MOL      0.082009
    148 N13        -4.1730    2.6250   -1.2430 n         1 MOL      0.002321
    149 C50        -3.7830    2.5120   -2.6540 c3        1 MOL     -0.395396
    150 C51        -4.9780    2.6520   -3.6910 c         1 MOL      0.561331
    151 O21        -4.9800    3.6070   -4.4420 o         1 MOL     -0.531473
    152 C52        -3.1970    1.0130   -2.9220 c3        1 MOL      0.337851
    153 C53        -1.8740    0.5720   -2.2010 c3        1 MOL     -0.415506
    154 C54        -2.1040    0.1270   -0.7300 c         1 MOL      0.622640
    155 O22        -1.1130   -0.2610   -0.0410 o         1 MOL     -0.705546
    156 O23        -3.2510    0.1450   -0.3030 o         1 MOL     -0.705546
    157 H67        -3.9200    1.8370   -0.6710 hn        1 MOL      0.212586
    158 H68        -3.0540    3.2620   -2.9520 h1        1 MOL      0.139812
    159 H69        -2.9790    0.9980   -3.9880 hc        1 MOL     -0.061828
    160 H70        -3.9930    0.2710   -2.9470 hc        1 MOL     -0.061828
    161 H71        -1.1690    1.3990   -2.3000 hc        1 MOL      0.106786
    162 H72        -1.5300   -0.2900   -2.7710 hc        1 MOL      0.106786
    163 N14        -6.0380    1.8470   -3.5510 n         1 MOL     -0.267257
    164 C55        -7.2980    1.9510   -4.3700 c3        1 MOL     -0.290734
    165 H73        -7.9570    2.6990   -3.9290 h1        1 MOL      0.115630
    166 H74        -7.0460    2.2460   -5.3890 h1        1 MOL      0.115630
    167 H75        -7.8030    0.9860   -4.3850 h1        1 MOL      0.115630
    168 H76        -6.0800    1.2670   -2.7300 hn        1 MOL      0.272743
    169 Ca1         1.0070   -0.5970    1.4900 Ca        1 MOL      1.710889
    170 O24        -1.4030    1.3280    2.1830 oh        1 MOL     -0.824652
    171 H77        -1.6020    0.7300    1.4590 ho        1 MOL      0.408006
    172 H78        -1.5320    2.2040    1.8010 ho        1 MOL      0.408006
    173 O25         2.5950   -2.6350    2.4210 oh        1 MOL     -0.824652
    174 H79         3.4920   -2.7930    2.7070 ho        1 MOL      0.408006
    175 H80         2.0670   -3.2790    2.8910 ho        1 MOL      0.408006
    176 O26         2.0390   -0.6880   -0.9150 oh        1 MOL     -0.824652
    177 O27         1.3270    1.9330    0.6430 oh        1 MOL     -0.824652
    178 H81         2.8030   -0.3220   -1.3710 ho        1 MOL      0.408006
    179 H82         2.2410    2.0660    0.3990 ho        1 MOL      0.408006
    180 H83         1.2880   -0.2420   -1.3060 ho        1 MOL      0.408006
    181 H84         0.9690    2.8130    0.7380 ho        1 MOL      0.408006
@<TRIPOS>BOND
     1    1    2 1   
     2    1    4 1   
     3    1    5 1   
     4    1    6 1   
     5    2    3 2   
     6    2    7 1   
     7    7    8 1   
     8    7   15 1   
     9    8    9 1   
    10    8   11 1   
    11    8   16 1   
    12    9   10 2   
    13    9   19 1   
    14   11   12 1   
    15   11   17 1   
    16   11   18 1   
    17   12   13 1   
    18   12   14 1   
    19   19   20 1   
    20   19   24 1   
    21   20   21 1   
    22   20   23 1   
    23   20   25 1   
    24   21   22 2   
    25   21   29 1   
    26   23   26 1   
    27   23   27 1   
    28   23   28 1   
    29   29   30 1   
    30   29   37 1   
    31   30   31 1   
    32   30   33 1   
    33   30   38 1   
    34   31   32 2   
    35   31   41 1   
    36   33   34 1   
    37   33   39 1   
    38   33   40 1   
    39   34   35 1   
    40   34   36 1   
    41   41   42 1   
    42   41   45 1   
    43   42   43 1   
    44   42   46 1   
    45   42   47 1   
    46   43   44 2   
    47   43   48 1   
    48   48   49 1   
    49   48   56 1   
    50   49   50 1   
    51   49   52 1   
    52   49   57 1   
    53   50   51 2   
    54   50   62 1   
    55   52   53 1   
    56   52   58 1   
    57   52   59 1   
    58   53   54 1   
    59   53   55 2   
    60   54   60 1   
    61   54   61 1   
    62   62   63 1   
    63   62   66 1   
    64   63   64 1   
    65   63   67 1   
    66   63   68 1   
    67   64   65 2   
    68   64   69 1   
    69   69   70 1   
    70   69   76 1   
    71   70   71 1   
    72   70   73 1   
    73   70   77 1   
    74   71   72 2   
    75   71   83 1   
    76   73   74 1   
    77   73   75 1   
    78   73   78 1   
    79   74   80 1   
    80   74   81 1   
    81   74   82 1   
    82   75   79 1   
    83   83   84 1   
    84   83   91 1   
    85   84   85 1   
    86   84   87 1   
    87   84   92 1   
    88   85   86 2   
    89   85  102 1   
    90   87   88 1   
    91   87   89 1   
    92   87   93 1   
    93   88   90 1   
    94   88   94 1   
    95   88   95 1   
    96   89   96 1   
    97   89   97 1   
    98   89   98 1   
    99   90   99 1   
   100   90  100 1   
   101   90  101 1   
   102  102  103 1   
   103  102  110 1   
   104  103  104 1   
   105  103  106 1   
   106  103  111 1   
   107  104  105 2   
   108  104  114 1   
   109  106  107 1   
   110  106  112 1   
   111  106  113 1   
   112  107  108 1   
   113  107  109 1   
   114  114  115 1   
   115  114  125 1   
   116  115  116 1   
   117  115  118 1   
   118  115  126 1   
   119  116  117 2   
   120  116  134 1   
   121  118  119 1   
   122  118  127 1   
   123  118  128 1   
   124  119  120 ar  
   125  119  121 ar  
   126  120  122 ar  
   127  120  129 1   
   128  121  123 ar  
   129  121  130 1   
   130  122  124 ar  
   131  122  131 1   
   132  123  124 ar  
   133  123  132 1   
   134  124  133 1   
   135  134  135 1   
   136  134  140 1   
   137  135  136 1   
   138  135  138 1   
   139  135  141 1   
   140  136  137 2   
   141  136  148 1   
   142  138  139 1   
   143  138  142 1   
   144  138  143 1   
   145  139  140 1   
   146  139  144 1   
   147  139  145 1   
   148  140  146 1   
   149  140  147 1   
   150  148  149 1   
   151  148  157 1   
   152  149  150 1   
   153  149  152 1   
   154  149  158 1   
   155  150  151 2   
   156  150  163 1   
   157  152  153 1   
   158  152  159 1   
   159  152  160 1   
   160  153  154 1   
   161  153  161 1   
   162  153  162 1   
   163  154  155 1   
   164  154  156 1   
   165  163  164 1   
   166  163  168 1   
   167  164  165 1   
   168  164  166 1   
   169  164  167 1   
   170  170  171 1   
   171  170  172 1   
   172  173  174 1   
   173  173  175 1   
   174  176  178 1   
   175  176  180 1   
   176  177  179 1   
   177  177  181 1   
@<TRIPOS>SUBSTRUCTURE
     1 MOL         1 TEMP              0 ****  ****    0 ROOT
