@<TRIPOS>MOLECULE
MOL
  198   191     1     0     0
SMALL
resp


@<TRIPOS>ATOM
      1 C1         -4.1320    3.9900    4.5760 c3        1 MOL     -0.347947
      2 C2         -4.9050    2.8760    3.8580 c         1 MOL      0.690193
      3 O1         -4.4560    1.7740    3.8270 o         1 MOL     -0.566969
      4 H1         -3.1070    3.6630    4.7540 hc        1 MOL      0.085366
      5 H2         -4.1240    4.8850    3.9540 hc        1 MOL      0.085366
      6 H3         -4.6130    4.2120    5.5280 hc        1 MOL      0.085366
      7 N1         -6.0850    3.1730    3.3250 n         1 MOL     -0.466438
      8 C3         -6.9220    2.2300    2.5630 c3        1 MOL      0.059821
      9 C4         -6.2380    1.7250    1.2700 c         1 MOL      0.298957
     10 O2         -5.4080    2.4240    0.6750 o         1 MOL     -0.412124
     11 C5         -8.2850    2.7990    2.1230 c3        1 MOL     -0.144734
     12 C6         -8.2390    4.3080    1.7020 c         1 MOL      0.719513
     13 O3         -9.3890    4.7380    1.5240 o         1 MOL     -0.684482
     14 O4         -7.1910    5.0030    1.5550 o         1 MOL     -0.684482
     15 H4         -6.2590    4.1530    3.1480 hn        1 MOL      0.229713
     16 H5         -7.1090    1.3110    3.1180 h1        1 MOL      0.046510
     17 H6         -8.9170    2.7510    3.0120 hc        1 MOL      0.049031
     18 H7         -8.6820    2.2240    1.2850 hc        1 MOL      0.049031
     19 N2         -6.3830    0.4410    0.9270 n         1 MOL     -0.316022
     20 C7         -5.5200   -0.1980   -0.0370 c3        1 MOL      0.061718
     21 C8         -5.4120    0.3760   -1.4120 c         1 MOL      0.164993
     22 O5         -6.4420    0.8410   -1.9900 o         1 MOL     -0.538022
     23 C9         -5.8560   -1.7540   -0.1570 c3        1 MOL      0.072806
     24 C10        -7.3290   -2.1660   -0.6390 c3        1 MOL      0.126550
     25 C11        -7.5780   -3.6610   -0.2680 c3        1 MOL     -0.188887
     26 C12        -8.7980   -4.3320   -0.9120 c3        1 MOL      0.081449
     27 N3         -8.6850   -4.3640   -2.3790 n4        1 MOL     -0.348458
     28 H8         -6.9980   -0.1370    1.4760 hn        1 MOL      0.271532
     29 H9         -4.4890   -0.2010    0.3140 h1        1 MOL      0.119690
     30 H10        -5.7850   -2.2710    0.8080 hc        1 MOL     -0.019819
     31 H11        -5.0870   -2.1400   -0.8200 hc        1 MOL     -0.019819
     32 H12        -7.4850   -2.0710   -1.7160 hc        1 MOL     -0.029554
     33 H13        -7.9640   -1.4690   -0.0960 hc        1 MOL     -0.029554
     34 H14        -7.7390   -3.6340    0.8080 hc        1 MOL      0.087873
     35 H15        -6.6260   -4.1320   -0.5360 hc        1 MOL      0.087873
     36 H16        -9.6370   -3.6620   -0.7500 hx        1 MOL      0.065552
     37 H17        -8.9680   -5.2760   -0.3800 hx        1 MOL      0.065552
     38 H18        -8.0150   -5.0670   -2.6580 hn        1 MOL      0.326509
     39 H19        -9.5520   -4.4040   -2.8950 hn        1 MOL      0.326509
     40 H20        -8.1340   -3.5820   -2.7070 hn        1 MOL      0.326509
     41 N4         -4.2690    0.3110   -2.0030 n         1 MOL     -0.350895
     42 C13        -4.0520    0.8040   -3.3410 c3        1 MOL      0.501799
     43 C14        -3.3100   -0.2000   -4.2620 c         1 MOL      0.349799
     44 O6         -2.2010    0.1710   -4.7000 o         1 MOL     -0.490654
     45 C15        -3.3790    2.1380   -3.3790 c3        1 MOL     -0.738405
     46 C16        -4.0010    3.2440   -2.5000 c         1 MOL      0.983687
     47 O7         -5.0370    3.9040   -2.8250 o         1 MOL     -0.788196
     48 O8         -3.4160    3.5400   -1.4400 o         1 MOL     -0.788196
     49 H21        -3.4940   -0.1530   -1.5410 hn        1 MOL      0.299719
     50 H22        -5.0210    1.0030   -3.8000 h1        1 MOL      0.018457
     51 H23        -3.3920    2.5000   -4.4090 hc        1 MOL      0.187855
     52 H24        -2.4070    2.0830   -2.8820 hc        1 MOL      0.187855
     53 N5         -3.8310   -1.3880   -4.6470 n         1 MOL     -0.354921
     54 C17        -5.0390   -2.0440   -4.0420 c3        1 MOL     -0.307778
     55 C18        -4.9070   -3.3090   -3.3090 c         1 MOL      0.792686
     56 O9         -5.9250   -3.8710   -2.9600 o         1 MOL     -0.687488
     57 H25        -3.3050   -1.9020   -5.3440 hn        1 MOL      0.340625
     58 H26        -5.5570   -2.3670   -4.9380 h1        1 MOL      0.131581
     59 H27        -5.7370   -1.3840   -3.5230 h1        1 MOL      0.131581
     60 N6         -3.6730   -3.7220   -3.0430 n         1 MOL     -0.373891
     61 C19        -3.2910   -5.0540   -2.4330 c3        1 MOL      0.051035
     62 C20        -1.9870   -4.8770   -1.5850 c         1 MOL      0.396658
     63 O10        -1.1080   -4.0420   -1.8660 o         1 MOL     -0.441863
     64 C21        -3.0620   -6.1200   -3.5550 c3        1 MOL     -0.071582
     65 C22        -3.9130   -6.0690   -4.7690 c         1 MOL      0.666960
     66 O11        -4.9800   -6.7680   -4.7340 o         1 MOL     -0.712381
     67 O12        -3.5210   -5.3080   -5.6870 o         1 MOL     -0.712381
     68 H28        -2.9860   -3.1740   -3.5460 hn        1 MOL      0.226504
     69 H29        -4.0500   -5.4210   -1.7470 h1        1 MOL      0.045222
     70 H30        -3.1400   -7.1320   -3.1590 hc        1 MOL      0.018313
     71 H31        -2.0420   -5.9970   -3.9220 hc        1 MOL      0.018313
     72 N7         -1.7460   -5.8300   -0.6570 n         1 MOL     -0.385614
     73 C23        -0.3740   -5.9040    0.0490 c3        1 MOL     -0.367148
     74 C24        -0.2240   -4.9790    1.2690 c         1 MOL      0.670535
     75 O13         0.8720   -4.6360    1.6000 o         1 MOL     -0.553039
     76 H32        -2.4380   -6.4700   -0.2790 hn        1 MOL      0.292423
     77 H33         0.3550   -5.6060   -0.7080 h1        1 MOL      0.192230
     78 H34        -0.2460   -6.9480    0.3560 h1        1 MOL      0.192230
     79 N8         -1.2890   -4.7020    2.0240 n         1 MOL     -0.436723
     80 C25        -1.2470   -3.8770    3.1960 c3        1 MOL     -0.112822
     81 C26        -0.7530   -2.4440    2.8930 c         1 MOL      0.393854
     82 O14        -1.0120   -1.8210    1.8990 o         1 MOL     -0.456585
     83 C27        -2.5970   -3.8800    3.8890 c3        1 MOL      0.546359
     84 C28        -2.5860   -3.2820    5.2770 c3        1 MOL     -0.283596
     85 O15        -3.5880   -3.2890    3.0280 oh        1 MOL     -0.680910
     86 H35        -2.1670   -5.0800    1.6980 hn        1 MOL      0.245816
     87 H36        -0.5220   -4.3040    3.8920 h1        1 MOL      0.066675
     88 H37        -2.7750   -4.9330    4.1090 h1        1 MOL     -0.008637
     89 H38        -3.3080   -2.3890    2.8720 ho        1 MOL      0.397551
     90 H39        -3.5770   -3.2480    5.7180 hc        1 MOL      0.053824
     91 H40        -1.9250   -3.9420    5.8220 hc        1 MOL      0.053824
     92 H41        -2.1860   -2.2640    5.2520 hc        1 MOL      0.053824
     93 N9          0.1080   -1.9760    3.8560 n         1 MOL     -0.203945
     94 C29         0.7070   -0.6500    3.8440 c3        1 MOL     -0.030708
     95 C30         1.7330   -0.5330    2.7200 c         1 MOL      0.343942
     96 O16         1.8280    0.4900    2.0620 o         1 MOL     -0.487658
     97 C31         1.3070   -0.3260    5.2180 c3        1 MOL      0.280663
     98 C32         0.5430   -0.5790    6.5120 c3        1 MOL     -0.051102
     99 C33         1.8840    1.0610    5.1070 c3        1 MOL     -0.396817
    100 C34        -0.7400    0.2280    6.3940 c3        1 MOL     -0.138660
    101 H42         0.4410   -2.5450    4.6270 hn        1 MOL      0.222153
    102 H43        -0.0140    0.1400    3.6310 h1        1 MOL      0.104036
    103 H44         2.1390   -1.0400    5.2760 hc        1 MOL     -0.063134
    104 H45         1.1790   -0.3620    7.3730 hc        1 MOL      0.004860
    105 H46         0.3530   -1.6580    6.5250 hc        1 MOL      0.004860
    106 H47         1.1630    1.6650    4.5620 hc        1 MOL      0.107398
    107 H48         2.1400    1.4800    6.0810 hc        1 MOL      0.107398
    108 H49         2.8260    0.9360    4.5650 hc        1 MOL      0.107398
    109 H50        -1.5470   -0.0440    7.0770 hc        1 MOL      0.041487
    110 H51        -0.5770    1.2840    6.6320 hc        1 MOL      0.041487
    111 H52        -1.1670    0.1440    5.3990 hc        1 MOL      0.041487
    112 N10         2.6060   -1.5460    2.4950 n         1 MOL     -0.247628
    113 C35         3.5650   -1.5760    1.4000 c3        1 MOL     -0.082714
    114 C36         4.8230   -2.2140    1.9990 c         1 MOL      0.513352
    115 O17         4.7510   -3.1340    2.7690 o         1 MOL     -0.527959
    116 C37         3.1920   -2.5270    0.2430 c3        1 MOL      0.528664
    117 C38         1.9920   -2.0280   -0.5780 c3        1 MOL     -0.460242
    118 O18         4.2680   -2.7720   -0.5850 oh        1 MOL     -0.655133
    119 H53         2.5550   -2.4130    3.0170 hn        1 MOL      0.190678
    120 H54         3.7550   -0.5630    1.0300 h1        1 MOL      0.080910
    121 H55         2.9460   -3.4800    0.7060 h1        1 MOL      0.007447
    122 H56         4.6550   -1.9280   -0.8320 ho        1 MOL      0.377538
    123 H57         1.2010   -1.6740    0.0720 hc        1 MOL      0.125568
    124 H58         2.2970   -1.2180   -1.2400 hc        1 MOL      0.125568
    125 H59         1.6280   -2.8690   -1.1730 hc        1 MOL      0.125568
    126 N11         5.9470   -1.6170    1.7310 n         1 MOL     -0.328356
    127 C39         7.2400   -1.8890    2.3510 c3        1 MOL     -0.150397
    128 C40         8.2770   -0.8510    2.0120 c         1 MOL      0.606276
    129 O19         8.8070   -0.1820    2.8630 o         1 MOL     -0.574474
    130 C41         7.8190   -3.3130    2.0920 c3        1 MOL      0.364987
    131 C42         9.1180   -3.7400    2.7770 c3        1 MOL     -0.332127
    132 O20         7.9960   -3.5850    0.7250 oh        1 MOL     -0.666515
    133 H60         5.8950   -0.8570    1.0640 hn        1 MOL      0.204046
    134 H61         7.1660   -1.8770    3.4380 h1        1 MOL      0.115324
    135 H62         7.0280   -3.9980    2.3970 h1        1 MOL      0.036012
    136 H63         8.1910   -4.5200    0.6850 ho        1 MOL      0.410376
    137 H64         8.9420   -4.6480    3.3640 hc        1 MOL      0.077930
    138 H65         9.7670   -3.9540    1.9280 hc        1 MOL      0.077930
    139 H66         9.5260   -2.8990    3.3470 hc        1 MOL      0.077930
    140 N12         8.5040   -0.5650    0.7450 n         1 MOL     -0.184735
    141 C43         9.3590    0.4800    0.1910 c3        1 MOL     -0.261848
    142 C44         8.5750    1.3840   -0.7120 c         1 MOL      0.637850
    143 O21         7.6360    0.9880   -1.3800 o         1 MOL     -0.547918
    144 C45        10.5990   -0.2220   -0.3700 c3        1 MOL     -0.106208
    145 C46        10.3290   -1.1680   -1.5000 c3        1 MOL     -0.090860
    146 C47        11.6750   -1.7160   -1.9240 c3        1 MOL      0.091245
    147 C48        11.5690   -2.3570   -3.2760 c3        1 MOL     -0.063777
    148 N13        11.3380   -3.7980   -3.1870 n4        1 MOL     -0.306141
    149 H67         8.0100   -1.1950    0.1360 hn        1 MOL      0.204012
    150 H68         9.6580    1.1800    0.9610 h1        1 MOL      0.149338
    151 H69        11.0160   -0.7060    0.5170 hc        1 MOL      0.078879
    152 H70        11.3460    0.4890   -0.6820 hc        1 MOL      0.078879
    153 H71         9.9390   -0.5490   -2.3020 hc        1 MOL      0.054484
    154 H72         9.6390   -1.9180   -1.1150 hc        1 MOL      0.054484
    155 H73        12.0370   -2.3610   -1.1200 hc        1 MOL      0.008989
    156 H74        12.4430   -0.9430   -1.8770 hc        1 MOL      0.008989
    157 H75        12.5090   -2.1410   -3.7850 hx        1 MOL      0.114117
    158 H76        10.8120   -1.8700   -3.8840 hx        1 MOL      0.114117
    159 H77        10.3500   -3.9750   -3.1860 hn        1 MOL      0.257063
    160 H78        11.6940   -4.2910   -3.9940 hn        1 MOL      0.257063
    161 H79        11.7440   -4.1960   -2.3470 hn        1 MOL      0.257063
    162 N14         8.8420    2.6670   -0.6840 n         1 MOL     -0.495991
    163 C49         8.3190    3.5940   -1.7020 c3        1 MOL      0.194298
    164 C50         6.8330    3.9620   -1.8510 c         1 MOL      0.377116
    165 O22         6.2610    3.6630   -2.8980 o         1 MOL     -0.517563
    166 C51         9.2740    4.8330   -1.6840 c3        1 MOL      0.108331
    167 C52         9.1100    5.7630   -2.8900 c3        1 MOL     -0.290055
    168 C53        10.1880    6.8360   -2.7750 c         1 MOL      0.706550
    169 O23        10.1390    7.8030   -1.9530 o         1 MOL     -0.650176
    170 O24        11.2230    6.6860   -3.4750 o         1 MOL     -0.650176
    171 H80         9.5340    3.0410   -0.0490 hn        1 MOL      0.271629
    172 H81         8.5680    3.1770   -2.6780 h1        1 MOL      0.039039
    173 H82        10.3240    4.5440   -1.6710 hc        1 MOL     -0.013567
    174 H83         9.1910    5.3640   -0.7340 hc        1 MOL     -0.013567
    175 H84         8.1010    6.1630   -2.7820 hc        1 MOL      0.056063
    176 H85         9.1990    5.2220   -3.8330 hc        1 MOL      0.056063
    177 N15         6.2060    4.5430   -0.8310 n         1 MOL     -0.287370
    178 C54         6.6830    4.9250    0.5130 c3        1 MOL     -0.135247
    179 H86         6.8570    6.0000    0.5450 h1        1 MOL      0.081748
    180 H87         5.9310    4.6570    1.2560 h1        1 MOL      0.081748
    181 H88         7.6130    4.4000    0.7320 h1        1 MOL      0.081748
    182 H89         5.2260    4.6500   -1.0400 hn        1 MOL      0.265961
    183 Ca1        -5.5500    4.8720   -0.5050 Ca        1 MOL      1.717821
    184 O25        -7.6740    3.3240   -1.0990 oh        1 MOL     -0.822072
    185 H90        -7.3510    2.4930   -1.4620 ho        1 MOL      0.407441
    186 H91        -8.5970    3.3430   -1.3460 ho        1 MOL      0.407441
    187 O26        -4.0640    6.8590   -1.8760 oh        1 MOL     -0.822072
    188 H92        -3.5970    6.7680   -2.7060 ho        1 MOL      0.407441
    189 H93        -4.1990    7.8040   -1.7930 ho        1 MOL      0.407441
    190 O27        -7.1580    6.2030   -2.0430 oh        1 MOL     -0.822072
    191 H94        -8.0850    6.3610   -1.8690 ho        1 MOL      0.407441
    192 H95        -7.1000    6.0970   -2.9880 ho        1 MOL      0.407441
    193 O28        -3.8200    5.6230    1.4820 oh        1 MOL     -0.822072
    194 H96        -2.8880    5.6340    1.2530 ho        1 MOL      0.407441
    195 H97        -3.9060    6.2840    2.1640 ho        1 MOL      0.407441
    196 O29        -6.0340    7.6230    0.1460 oh        1 MOL     -0.822072
    197 H98        -6.7650    7.7040    0.7700 ho        1 MOL      0.407441
    198 H99        -5.7590    8.5150   -0.0150 ho        1 MOL      0.407441
@<TRIPOS>BOND
     1    1    2 1   
     2    1    4 1   
     3    1    5 1   
     4    1    6 1   
     5    2    3 2   
     6    2    7 1   
     7    7    8 1   
     8    7   15 1   
     9    8    9 1   
    10    8   11 1   
    11    8   16 1   
    12    9   10 2   
    13    9   19 1   
    14   11   12 1   
    15   11   17 1   
    16   11   18 1   
    17   12   13 1   
    18   12   14 1   
    19   19   20 1   
    20   19   28 1   
    21   20   21 1   
    22   20   23 1   
    23   20   29 1   
    24   21   22 2   
    25   21   41 1   
    26   23   24 1   
    27   23   30 1   
    28   23   31 1   
    29   24   25 1   
    30   24   32 1   
    31   24   33 1   
    32   25   26 1   
    33   25   34 1   
    34   25   35 1   
    35   26   27 1   
    36   26   36 1   
    37   26   37 1   
    38   27   38 1   
    39   27   39 1   
    40   27   40 1   
    41   41   42 1   
    42   41   49 1   
    43   42   43 1   
    44   42   45 1   
    45   42   50 1   
    46   43   44 2   
    47   43   53 1   
    48   45   46 1   
    49   45   51 1   
    50   45   52 1   
    51   46   47 1   
    52   46   48 1   
    53   53   54 1   
    54   53   57 1   
    55   54   55 1   
    56   54   58 1   
    57   54   59 1   
    58   55   56 2   
    59   55   60 1   
    60   60   61 1   
    61   60   68 1   
    62   61   62 1   
    63   61   64 1   
    64   61   69 1   
    65   62   63 2   
    66   62   72 1   
    67   64   65 1   
    68   64   70 1   
    69   64   71 1   
    70   65   66 1   
    71   65   67 1   
    72   72   73 1   
    73   72   76 1   
    74   73   74 1   
    75   73   77 1   
    76   73   78 1   
    77   74   75 2   
    78   74   79 1   
    79   79   80 1   
    80   79   86 1   
    81   80   81 1   
    82   80   83 1   
    83   80   87 1   
    84   81   82 2   
    85   81   93 1   
    86   83   84 1   
    87   83   85 1   
    88   83   88 1   
    89   84   90 1   
    90   84   91 1   
    91   84   92 1   
    92   85   89 1   
    93   93   94 1   
    94   93  101 1   
    95   94   95 1   
    96   94   97 1   
    97   94  102 1   
    98   95   96 2   
    99   95  112 1   
   100   97   98 1   
   101   97   99 1   
   102   97  103 1   
   103   98  100 1   
   104   98  104 1   
   105   98  105 1   
   106   99  106 1   
   107   99  107 1   
   108   99  108 1   
   109  100  109 1   
   110  100  110 1   
   111  100  111 1   
   112  112  113 1   
   113  112  119 1   
   114  113  114 1   
   115  113  116 1   
   116  113  120 1   
   117  114  115 2   
   118  114  126 1   
   119  116  117 1   
   120  116  118 1   
   121  116  121 1   
   122  117  123 1   
   123  117  124 1   
   124  117  125 1   
   125  118  122 1   
   126  126  127 1   
   127  126  133 1   
   128  127  128 1   
   129  127  130 1   
   130  127  134 1   
   131  128  129 2   
   132  128  140 1   
   133  130  131 1   
   134  130  132 1   
   135  130  135 1   
   136  131  137 1   
   137  131  138 1   
   138  131  139 1   
   139  132  136 1   
   140  140  141 1   
   141  140  149 1   
   142  141  142 1   
   143  141  144 1   
   144  141  150 1   
   145  142  143 2   
   146  142  162 1   
   147  144  145 1   
   148  144  151 1   
   149  144  152 1   
   150  145  146 1   
   151  145  153 1   
   152  145  154 1   
   153  146  147 1   
   154  146  155 1   
   155  146  156 1   
   156  147  148 1   
   157  147  157 1   
   158  147  158 1   
   159  148  159 1   
   160  148  160 1   
   161  148  161 1   
   162  162  163 1   
   163  162  171 1   
   164  163  164 1   
   165  163  166 1   
   166  163  172 1   
   167  164  165 2   
   168  164  177 1   
   169  166  167 1   
   170  166  173 1   
   171  166  174 1   
   172  167  168 1   
   173  167  175 1   
   174  167  176 1   
   175  168  169 1   
   176  168  170 1   
   177  177  178 1   
   178  177  182 1   
   179  178  179 1   
   180  178  180 1   
   181  178  181 1   
   182  184  185 1   
   183  184  186 1   
   184  187  188 1   
   185  187  189 1   
   186  190  191 1   
   187  190  192 1   
   188  193  194 1   
   189  193  195 1   
   190  196  197 1   
   191  196  198 1   
@<TRIPOS>SUBSTRUCTURE
     1 MOL         1 TEMP              0 ****  ****    0 ROOT
