@<TRIPOS>MOLECULE
MOL
  181   177     1     0     0
SMALL
resp


@<TRIPOS>ATOM
      1 C1         10.0830    7.3200    0.0940 c3        1 MOL     -0.444601
      2 C2          9.1520    6.2360    0.5750 c         1 MOL      0.765516
      3 O1          8.2970    6.4180    1.4020 o         1 MOL     -0.595608
      4 H1          9.8020    8.2680    0.5520 hc        1 MOL      0.117746
      5 H2         11.1060    7.0720    0.3730 hc        1 MOL      0.117746
      6 H3         10.0120    7.4050   -0.9900 hc        1 MOL      0.117746
      7 N1          9.1590    4.9500    0.1210 n         1 MOL     -0.625484
      8 C3          9.9310    4.3480   -1.0610 c3        1 MOL      0.157334
      9 C4         10.8460    3.2330   -0.6360 c         1 MOL      0.493455
     10 O2         11.7450    2.7700   -1.3130 o         1 MOL     -0.563765
     11 C5          9.0270    3.8190   -2.2230 c3        1 MOL     -0.238565
     12 C6          8.0180    2.7180   -1.7230 c         1 MOL      0.869678
     13 O3          6.9460    2.5250   -2.3990 o         1 MOL     -0.836751
     14 O4          8.0440    2.1290   -0.5910 o         1 MOL     -0.836751
     15 H4          8.5870    4.2670    0.5960 hn        1 MOL      0.306558
     16 H5         10.6210    5.0590   -1.5110 h1        1 MOL      0.028441
     17 H6          9.6170    3.3550   -3.0200 hc        1 MOL      0.079687
     18 H7          8.4540    4.6670   -2.5990 hc        1 MOL      0.079687
     19 N2         10.5800    2.6910    0.5640 n         1 MOL     -0.459208
     20 C7         11.3930    1.6760    1.2430 c3        1 MOL      0.208112
     21 C8         10.8190    0.2310    1.0930 c         1 MOL      0.382099
     22 O5         11.5250   -0.6110    1.5680 o         1 MOL     -0.540637
     23 C9         11.4650    2.0850    2.7170 c3        1 MOL     -0.164877
     24 H8          9.6850    2.8600    0.9970 hn        1 MOL      0.313712
     25 H9         12.4270    1.7610    0.8850 h1        1 MOL      0.061252
     26 H10        10.5910    1.8010    3.3080 hc        1 MOL      0.042954
     27 H11        12.3290    1.6150    3.1940 hc        1 MOL      0.042954
     28 H12        11.5140    3.1720    2.6980 hc        1 MOL      0.042954
     29 N3          9.6190   -0.0150    0.5420 n         1 MOL     -0.315757
     30 C10         8.9470   -1.3180    0.5920 c3        1 MOL      0.191718
     31 C11         8.2110   -1.4900   -0.7490 c         1 MOL      0.354539
     32 O6          7.8200   -0.5310   -1.4870 o         1 MOL     -0.512855
     33 C12         8.0870   -1.5040    1.8770 c3        1 MOL     -0.247569
     34 C13         7.0040   -0.4230    1.8780 c         1 MOL      0.813804
     35 O7          7.1740    0.7100    2.3220 o         1 MOL     -0.741221
     36 O8          5.9270   -0.6500    1.2950 o         1 MOL     -0.741221
     37 H13         9.0930    0.7420    0.1190 hn        1 MOL      0.259622
     38 H14         9.6320   -2.1620    0.5990 h1        1 MOL      0.007733
     39 H15         8.7580   -1.4760    2.7410 hc        1 MOL      0.063875
     40 H16         7.6290   -2.4890    1.8790 hc        1 MOL      0.063875
     41 N4          7.9130   -2.7310   -1.0950 n         1 MOL     -0.253058
     42 C14         7.1160   -3.2140   -2.2540 c3        1 MOL     -0.376089
     43 C15         5.6850   -2.6850   -2.2880 c         1 MOL      0.752237
     44 O9          5.3270   -1.7220   -1.5430 o         1 MOL     -0.578900
     45 H17         8.2220   -3.4200   -0.4310 hn        1 MOL      0.271298
     46 H18         7.0530   -4.2850   -2.0900 h1        1 MOL      0.169281
     47 H19         7.6360   -2.9040   -3.1620 h1        1 MOL      0.169281
     48 N5          4.8070   -3.4220   -3.0440 n         1 MOL     -0.608318
     49 C16         3.3610   -3.2510   -2.9800 c3        1 MOL      0.138850
     50 C17         2.6410   -3.8950   -1.7890 c         1 MOL      0.678002
     51 O10         3.1050   -4.9080   -1.2780 o         1 MOL     -0.519432
     52 C18         2.6640   -3.5710   -4.3190 c3        1 MOL     -0.163913
     53 C19         2.6240   -5.0770   -4.7340 c         1 MOL      0.573175
     54 N6          1.5640   -5.6810   -5.0930 n         1 MOL     -0.722878
     55 O11         3.6960   -5.7010   -4.7950 o         1 MOL     -0.559654
     56 H20         5.2370   -4.1340   -3.6160 hn        1 MOL      0.300360
     57 H21         3.1500   -2.1830   -2.8220 h1        1 MOL      0.038796
     58 H22         3.0150   -2.9930   -5.1840 hc        1 MOL      0.063298
     59 H23         1.6410   -3.2030   -4.2670 hc        1 MOL      0.063298
     60 H24         0.6550   -5.2440   -5.0220 hn        1 MOL      0.370828
     61 H25         1.7300   -6.6260   -5.3900 hn        1 MOL      0.370828
     62 N7          1.4910   -3.3370   -1.4020 n         1 MOL     -0.646427
     63 C20         0.8570   -3.6450   -0.1370 c3        1 MOL     -0.018221
     64 C21         1.7410   -3.2670    1.0780 c         1 MOL      0.450453
     65 O12         2.5730   -2.3510    1.0480 o         1 MOL     -0.475424
     66 H26         1.0750   -2.6650   -2.0360 hn        1 MOL      0.347829
     67 H27         0.8510   -4.7330   -0.1010 h1        1 MOL      0.121559
     68 H28        -0.1480   -3.2460   -0.1220 h1        1 MOL      0.121559
     69 N8          1.4930   -3.7550    2.2500 n         1 MOL     -0.365832
     70 C22         0.2370   -4.4420    2.6370 c3        1 MOL     -0.139486
     71 C23        -1.1060   -3.6840    2.4700 c         1 MOL      0.290108
     72 O13        -2.1700   -4.2710    2.3000 o         1 MOL     -0.534472
     73 C24         0.2830   -4.8710    4.1040 c3        1 MOL      0.342954
     74 C25         0.9840   -6.2300    4.1270 c3        1 MOL     -0.490641
     75 O14         1.0270   -3.9620    4.7880 oh        1 MOL     -0.584470
     76 H29         2.0840   -3.3110    2.9360 hn        1 MOL      0.295075
     77 H30         0.0330   -5.2530    1.9430 h1        1 MOL      0.134566
     78 H31        -0.6820   -5.0010    4.5890 h1        1 MOL      0.082855
     79 H32         1.7990   -4.4130    5.1250 ho        1 MOL      0.392813
     80 H33         1.7620   -6.3700    3.3700 hc        1 MOL      0.121940
     81 H34         1.3310   -6.5170    5.1070 hc        1 MOL      0.121940
     82 H35         0.3320   -7.0470    3.8130 hc        1 MOL      0.121940
     83 N9         -1.1430   -2.3600    2.3210 n         1 MOL     -0.018538
     84 C26        -2.3790   -1.5080    2.2270 c3        1 MOL      0.093703
     85 C27        -2.6240   -1.1360    0.7720 c         1 MOL      0.473793
     86 O15        -1.6960   -0.8040    0.0550 o         1 MOL     -0.623049
     87 C28        -2.1950   -0.2810    3.1360 c3        1 MOL     -0.047519
     88 C29        -2.2170   -0.7350    4.6560 c3        1 MOL      0.118271
     89 C30        -3.2870    0.7700    2.9230 c3        1 MOL     -0.240259
     90 C31        -3.4460   -1.4160    5.1930 c3        1 MOL      0.034528
     91 H36        -0.2400   -1.9200    2.2070 hn        1 MOL      0.131940
     92 H37        -3.2930   -2.0080    2.5400 h1        1 MOL      0.081612
     93 H38        -1.2170    0.1340    2.8830 hc        1 MOL     -0.003887
     94 H39        -2.2260    0.2170    5.1780 hc        1 MOL     -0.052809
     95 H40        -1.3080   -1.2730    4.9200 hc        1 MOL     -0.052809
     96 H41        -4.1820    0.3750    3.4230 hc        1 MOL      0.107850
     97 H42        -3.0670    1.6680    3.4870 hc        1 MOL      0.107850
     98 H43        -3.4750    1.0000    1.8710 hc        1 MOL      0.107850
     99 H44        -3.1600   -1.6640    6.2190 hc        1 MOL     -0.015075
    100 H45        -4.3380   -0.7990    5.0840 hc        1 MOL     -0.015075
    101 H46        -3.6490   -2.4060    4.7980 hc        1 MOL     -0.015075
    102 N10        -3.8720   -1.1440    0.2460 n         1 MOL     -0.384644
    103 C32        -5.1690   -1.4860    0.8160 c3        1 MOL      0.145537
    104 C33        -6.2300   -0.6500    0.0050 c         1 MOL      0.567314
    105 O16        -5.8680    0.1270   -0.9170 o         1 MOL     -0.554947
    106 C34        -5.4580   -3.0380    0.8330 c3        1 MOL     -0.097331
    107 C35        -5.3210   -3.7580   -0.4930 c         1 MOL      0.677546
    108 O17        -5.5500   -4.9770   -0.4450 o         1 MOL     -0.716973
    109 O18        -5.1220   -3.1260   -1.5610 o         1 MOL     -0.716973
    110 H47        -3.8230   -0.8220   -0.7120 hn        1 MOL      0.286876
    111 H48        -5.2680   -1.1450    1.8480 h1        1 MOL     -0.030120
    112 H49        -6.4410   -3.1020    1.2910 hc        1 MOL     -0.003534
    113 H50        -4.8530   -3.5460    1.5870 hc        1 MOL     -0.003534
    114 N11        -7.4520   -0.6820    0.4220 n         1 MOL     -0.595175
    115 C36        -8.6420   -0.1710   -0.2110 c3        1 MOL      0.357927
    116 C37        -9.6340    0.6000    0.7570 c         1 MOL      0.279454
    117 O19        -9.9150    0.1330    1.8580 o         1 MOL     -0.481558
    118 C38        -9.2230   -1.4350   -0.8180 c3        1 MOL     -0.121704
    119 C39       -10.5180   -1.1550   -1.5740 ca        1 MOL      0.059487
    120 C40       -11.8300   -1.3130   -0.9270 ca        1 MOL     -0.163414
    121 C41       -10.4030   -0.7640   -2.9170 ca        1 MOL     -0.163414
    122 C42       -12.9420   -0.9340   -1.6100 ca        1 MOL     -0.121524
    123 C43       -11.5470   -0.3440   -3.5960 ca        1 MOL     -0.121524
    124 C44       -12.7910   -0.4430   -2.9280 ca        1 MOL     -0.108420
    125 H51        -7.6100   -1.1310    1.3160 hn        1 MOL      0.324077
    126 H52        -8.3800    0.4840   -1.0440 h1        1 MOL      0.030214
    127 H53        -9.4720   -2.1990   -0.0790 hc        1 MOL      0.061671
    128 H54        -8.5530   -1.8760   -1.5560 hc        1 MOL      0.061671
    129 H55       -11.9330   -1.7670    0.0420 ha        1 MOL      0.137263
    130 H56        -9.4150   -0.6070   -3.3340 ha        1 MOL      0.137263
    131 H57       -13.9270   -1.0250   -1.1850 ha        1 MOL      0.107081
    132 H58       -11.5140    0.0780   -4.5910 ha        1 MOL      0.107081
    133 H59       -13.6740   -0.1920   -3.4980 ha        1 MOL      0.073398
    134 N12       -10.3460    1.7070    0.3190 n         1 MOL      0.016738
    135 C45       -10.2860    2.3480   -1.0090 c3        1 MOL      0.158964
    136 C46        -8.9310    3.0320   -1.3340 c         1 MOL      0.352702
    137 O20        -8.3980    2.8620   -2.4490 o         1 MOL     -0.564423
    138 C47       -11.4370    3.3250   -1.1670 c3        1 MOL     -0.012994
    139 C48       -12.3880    2.7580   -0.1300 c3        1 MOL     -0.021576
    140 C49       -11.5000    2.1660    1.0040 c3        1 MOL     -0.107187
    141 H60       -10.4500    1.6360   -1.8160 h1        1 MOL      0.022317
    142 H61       -11.0700    4.3240   -0.9170 hc        1 MOL      0.009814
    143 H62       -11.7580    3.2750   -2.1980 hc        1 MOL      0.009814
    144 H63       -13.0140    3.5710    0.2380 hc        1 MOL      0.001128
    145 H64       -13.0720    2.0670   -0.6210 hc        1 MOL      0.001128
    146 H65       -11.3020    2.9240    1.7700 h1        1 MOL      0.060373
    147 H66       -12.0650    1.3670    1.4740 h1        1 MOL      0.060373
    148 N13        -8.1900    3.5740   -0.3970 n         1 MOL     -0.311842
    149 C50        -6.7590    4.0480   -0.3460 c3        1 MOL      0.262947
    150 C51        -6.7990    5.4650   -0.9610 c         1 MOL      0.340881
    151 O21        -7.2160    6.4320   -0.3280 o         1 MOL     -0.561917
    152 C52        -6.3010    4.0480    1.0900 c3        1 MOL     -0.134068
    153 C53        -6.1250    2.6570    1.7960 c3        1 MOL      0.002642
    154 C54        -5.8780    2.7810    3.3330 c         1 MOL      0.687831
    155 O22        -6.3130    1.8700    4.0950 o         1 MOL     -0.723037
    156 O23        -5.2380    3.7590    3.8350 o         1 MOL     -0.723037
    157 H67        -8.5570    3.6000    0.5540 hn        1 MOL      0.216115
    158 H68        -6.1080    3.4000   -0.9370 h1        1 MOL      0.072963
    159 H69        -7.0090    4.6450    1.6620 hc        1 MOL      0.029009
    160 H70        -5.3090    4.5020    1.0980 hc        1 MOL      0.029009
    161 H71        -5.3490    1.9580    1.4730 hc        1 MOL     -0.066071
    162 H72        -7.0610    2.1200    1.6510 hc        1 MOL     -0.066071
    163 N14        -6.4670    5.7490   -2.2260 n         1 MOL     -0.261185
    164 C55        -5.9070    4.9120   -3.3000 c3        1 MOL     -0.194389
    165 H73        -5.5540    3.9700   -2.8790 h1        1 MOL      0.089118
    166 H74        -6.6760    4.7110   -4.0440 h1        1 MOL      0.089118
    167 H75        -5.0730    5.4330   -3.7700 h1        1 MOL      0.089118
    168 H76        -6.5630    6.7400   -2.4060 hn        1 MOL      0.248733
    169 Ca1         5.6620    0.8870   -0.7870 Ca        1 MOL      1.794150
    170 O24         3.8640    2.7140   -1.5680 oh        1 MOL     -0.865360
    171 H77         3.2200    3.3230   -1.2030 ho        1 MOL      0.422006
    172 H78         4.0480    3.0530   -2.4450 ho        1 MOL      0.422006
    173 O25         4.5700    0.7420   -3.2400 oh        1 MOL     -0.865360
    174 H79         5.1570    1.3570   -3.6590 ho        1 MOL      0.422006
    175 H80         3.8020    0.7060   -3.8150 ho        1 MOL      0.422006
    176 O26         5.4840    2.4100    1.3820 oh        1 MOL     -0.865360
    177 H81         5.4120    3.2240    1.8850 ho        1 MOL      0.422006
    178 H82         6.1140    1.8810    1.8750 ho        1 MOL      0.422006
    179 O27         3.1850    0.0660   -0.2030 oh        1 MOL     -0.865360
    180 H83         2.5040    0.4490   -0.7650 ho        1 MOL      0.422006
    181 H84         2.7760   -0.7090    0.1660 ho        1 MOL      0.422006
@<TRIPOS>BOND
     1    1    2 1   
     2    1    4 1   
     3    1    5 1   
     4    1    6 1   
     5    2    3 2   
     6    2    7 1   
     7    7    8 1   
     8    7   15 1   
     9    8    9 1   
    10    8   11 1   
    11    8   16 1   
    12    9   10 2   
    13    9   19 1   
    14   11   12 1   
    15   11   17 1   
    16   11   18 1   
    17   12   13 1   
    18   12   14 1   
    19   19   20 1   
    20   19   24 1   
    21   20   21 1   
    22   20   23 1   
    23   20   25 1   
    24   21   22 2   
    25   21   29 1   
    26   23   26 1   
    27   23   27 1   
    28   23   28 1   
    29   29   30 1   
    30   29   37 1   
    31   30   31 1   
    32   30   33 1   
    33   30   38 1   
    34   31   32 2   
    35   31   41 1   
    36   33   34 1   
    37   33   39 1   
    38   33   40 1   
    39   34   35 1   
    40   34   36 1   
    41   41   42 1   
    42   41   45 1   
    43   42   43 1   
    44   42   46 1   
    45   42   47 1   
    46   43   44 2   
    47   43   48 1   
    48   48   49 1   
    49   48   56 1   
    50   49   50 1   
    51   49   52 1   
    52   49   57 1   
    53   50   51 2   
    54   50   62 1   
    55   52   53 1   
    56   52   58 1   
    57   52   59 1   
    58   53   54 1   
    59   53   55 2   
    60   54   60 1   
    61   54   61 1   
    62   62   63 1   
    63   62   66 1   
    64   63   64 1   
    65   63   67 1   
    66   63   68 1   
    67   64   65 2   
    68   64   69 1   
    69   69   70 1   
    70   69   76 1   
    71   70   71 1   
    72   70   73 1   
    73   70   77 1   
    74   71   72 2   
    75   71   83 1   
    76   73   74 1   
    77   73   75 1   
    78   73   78 1   
    79   74   80 1   
    80   74   81 1   
    81   74   82 1   
    82   75   79 1   
    83   83   84 1   
    84   83   91 1   
    85   84   85 1   
    86   84   87 1   
    87   84   92 1   
    88   85   86 2   
    89   85  102 1   
    90   87   88 1   
    91   87   89 1   
    92   87   93 1   
    93   88   90 1   
    94   88   94 1   
    95   88   95 1   
    96   89   96 1   
    97   89   97 1   
    98   89   98 1   
    99   90   99 1   
   100   90  100 1   
   101   90  101 1   
   102  102  103 1   
   103  102  110 1   
   104  103  104 1   
   105  103  106 1   
   106  103  111 1   
   107  104  105 2   
   108  104  114 1   
   109  106  107 1   
   110  106  112 1   
   111  106  113 1   
   112  107  108 1   
   113  107  109 1   
   114  114  115 1   
   115  114  125 1   
   116  115  116 1   
   117  115  118 1   
   118  115  126 1   
   119  116  117 2   
   120  116  134 1   
   121  118  119 1   
   122  118  127 1   
   123  118  128 1   
   124  119  120 ar  
   125  119  121 ar  
   126  120  122 ar  
   127  120  129 1   
   128  121  123 ar  
   129  121  130 1   
   130  122  124 ar  
   131  122  131 1   
   132  123  124 ar  
   133  123  132 1   
   134  124  133 1   
   135  134  135 1   
   136  134  140 1   
   137  135  136 1   
   138  135  138 1   
   139  135  141 1   
   140  136  137 2   
   141  136  148 1   
   142  138  139 1   
   143  138  142 1   
   144  138  143 1   
   145  139  140 1   
   146  139  144 1   
   147  139  145 1   
   148  140  146 1   
   149  140  147 1   
   150  148  149 1   
   151  148  157 1   
   152  149  150 1   
   153  149  152 1   
   154  149  158 1   
   155  150  151 2   
   156  150  163 1   
   157  152  153 1   
   158  152  159 1   
   159  152  160 1   
   160  153  154 1   
   161  153  161 1   
   162  153  162 1   
   163  154  155 1   
   164  154  156 1   
   165  163  164 1   
   166  163  168 1   
   167  164  165 1   
   168  164  166 1   
   169  164  167 1   
   170  170  171 1   
   171  170  172 1   
   172  173  174 1   
   173  173  175 1   
   174  176  177 1   
   175  176  178 1   
   176  179  180 1   
   177  179  181 1   
@<TRIPOS>SUBSTRUCTURE
     1 MOL         1 TEMP              0 ****  ****    0 ROOT
