@<TRIPOS>MOLECULE
MOL
  175   173     1     0     0
SMALL
resp


@<TRIPOS>ATOM
      1 C1         -6.9630    7.8270    2.0920 c3        1 MOL     -0.315070
      2 C2         -7.7600    7.1260    0.9580 c         1 MOL      0.634214
      3 O1         -7.8760    7.5640   -0.1910 o         1 MOL     -0.566718
      4 H1         -6.0770    7.2390    2.3290 hc        1 MOL      0.080034
      5 H2         -6.6620    8.8220    1.7630 hc        1 MOL      0.080034
      6 H3         -7.5900    7.9110    2.9800 hc        1 MOL      0.080034
      7 N1         -8.3120    5.8950    1.2010 n         1 MOL     -0.557770
      8 C3         -9.1050    5.1270    0.2560 c3        1 MOL      0.305143
      9 C4         -8.2900    4.1510   -0.5720 c         1 MOL      0.457260
     10 O2         -8.7790    3.5970   -1.5690 o         1 MOL     -0.534667
     11 C5        -10.1240    4.2330    1.0730 c3        1 MOL     -0.333730
     12 C6        -11.4040    3.8410    0.2640 c         1 MOL      0.759482
     13 O3        -12.0100    2.7650    0.4840 o         1 MOL     -0.735163
     14 O4        -11.8350    4.6860   -0.5340 o         1 MOL     -0.735163
     15 H4         -8.2570    5.4870    2.1180 hn        1 MOL      0.274443
     16 H5         -9.6160    5.7810   -0.4520 h1        1 MOL      0.059428
     17 H6        -10.4800    4.8630    1.8940 hc        1 MOL      0.035626
     18 H7         -9.6640    3.3590    1.5240 hc        1 MOL      0.035626
     19 N2         -6.9770    4.0010   -0.2820 n         1 MOL     -0.461719
     20 C7         -6.0550    3.0960   -1.0180 c3        1 MOL      0.363301
     21 C8         -5.1890    2.3330   -0.0730 c         1 MOL      0.415003
     22 O5         -4.8100    2.9520    0.8990 o         1 MOL     -0.523409
     23 C9         -5.2010    4.0180   -1.9200 c3        1 MOL     -0.390427
     24 H8         -6.5420    4.2110    0.6060 hn        1 MOL      0.226063
     25 H9         -6.6600    2.3770   -1.5750 h1        1 MOL      0.015293
     26 H10        -4.4170    4.5360   -1.3590 hc        1 MOL      0.110467
     27 H11        -4.8720    3.3350   -2.7050 hc        1 MOL      0.110467
     28 H12        -5.7690    4.8600   -2.3250 hc        1 MOL      0.110467
     29 N3         -4.8020    1.0550   -0.1840 n         1 MOL     -0.355646
     30 C10        -5.3560    0.0200   -1.1440 c3        1 MOL      0.047136
     31 C11        -5.6040   -1.3710   -0.5790 c         1 MOL      0.432089
     32 O6         -4.8700   -1.8700    0.2580 o         1 MOL     -0.457826
     33 C12        -4.4490    0.0270   -2.3340 c3        1 MOL     -0.241941
     34 C13        -3.0340   -0.4690   -1.9290 c         1 MOL      0.828862
     35 O7         -2.1350    0.3150   -1.5460 o         1 MOL     -0.770335
     36 O8         -2.6410   -1.6280   -2.0340 o         1 MOL     -0.770335
     37 H13        -4.4300    0.6810    0.6790 hn        1 MOL      0.247173
     38 H14        -6.3370    0.4470   -1.3590 h1        1 MOL      0.034113
     39 H15        -4.5080    1.0340   -2.7390 hc        1 MOL      0.058233
     40 H16        -4.8730   -0.5900   -3.1210 hc        1 MOL      0.058233
     41 N4         -6.6370   -2.1150   -1.0250 n         1 MOL     -0.392580
     42 C14        -6.7720   -3.4940   -0.7110 c3        1 MOL      0.132628
     43 C15        -6.4420   -4.3460   -1.9430 c         1 MOL      0.471638
     44 O9         -7.2970   -4.6060   -2.7540 o         1 MOL     -0.543700
     45 H17        -7.1780   -1.7020   -1.7760 hn        1 MOL      0.307945
     46 H18        -7.8110   -3.6600   -0.4530 h1        1 MOL      0.017201
     47 H19        -6.1110   -3.8010    0.0990 h1        1 MOL      0.017201
     48 N5         -5.2240   -4.8970   -2.0790 n         1 MOL     -0.389566
     49 C16        -3.9520   -4.5640   -1.4000 c3        1 MOL      0.008546
     50 C17        -3.6990   -5.2580   -0.0830 c         1 MOL      0.354640
     51 O10        -3.4060   -6.4630   -0.0110 o         1 MOL     -0.518255
     52 C18        -2.7970   -5.0000   -2.3260 c3        1 MOL     -0.202782
     53 C19        -1.3620   -4.4920   -1.9320 c         1 MOL      0.579077
     54 N6         -0.3200   -4.7120   -2.6930 n         1 MOL     -0.797395
     55 O11        -1.2660   -3.9220   -0.8600 o         1 MOL     -0.492319
     56 H20        -5.2300   -5.6140   -2.7950 hn        1 MOL      0.282994
     57 H21        -3.9050   -3.4810   -1.2730 h1        1 MOL      0.112228
     58 H22        -3.0090   -4.7850   -3.3770 hc        1 MOL      0.081726
     59 H23        -2.6250   -6.0700   -2.2580 hc        1 MOL      0.081726
     60 H24        -0.4110   -5.3070   -3.4950 hn        1 MOL      0.380949
     61 H25         0.5990   -4.4150   -2.3940 hn        1 MOL      0.380949
     62 N7         -3.8160   -4.5430    1.0280 n         1 MOL     -0.007395
     63 C20        -3.6130   -5.0600    2.4330 c3        1 MOL     -0.446670
     64 C21        -2.1900   -5.2410    2.9280 c         1 MOL      0.759120
     65 O12        -2.0320   -5.8230    3.9580 o         1 MOL     -0.583693
     66 H26        -4.0640   -3.5670    0.9430 hn        1 MOL      0.187528
     67 H27        -4.1010   -6.0360    2.5070 h1        1 MOL      0.145729
     68 H28        -3.9790   -4.2810    3.1040 h1        1 MOL      0.145729
     69 N8         -1.1880   -4.7500    2.1680 n         1 MOL     -0.505310
     70 C22         0.2620   -4.8810    2.4500 c3        1 MOL      0.011811
     71 C23         0.9500   -3.5500    2.1350 c         1 MOL      0.375575
     72 O13         0.6040   -2.8260    1.2060 o         1 MOL     -0.430305
     73 C24         1.0270   -5.9550    1.5800 c3        1 MOL      0.406625
     74 C25         0.6360   -7.2960    2.1380 c3        1 MOL     -0.458533
     75 O14         0.7200   -5.9240    0.1420 oh        1 MOL     -0.487143
     76 H29        -1.3420   -4.3830    1.2410 hn        1 MOL      0.320923
     77 H30         0.4600   -5.0630    3.5040 h1        1 MOL      0.067580
     78 H31         2.0810   -5.8020    1.7930 h1        1 MOL     -0.005963
     79 H32         0.8020   -4.9840   -0.0340 ho        1 MOL      0.228665
     80 H33        -0.4370   -7.4830    2.0810 hc        1 MOL      0.119456
     81 H34         1.1600   -7.9780    1.4740 hc        1 MOL      0.119456
     82 H35         1.0130   -7.3580    3.1500 hc        1 MOL      0.119456
     83 N9          2.0850   -3.1920    2.7740 n         1 MOL     -0.287801
     84 C26         3.0780   -2.2630    2.4210 c3        1 MOL     -0.148708
     85 C27         3.9280   -2.8430    1.3000 c         1 MOL      0.388875
     86 O15         4.5160   -3.9200    1.5360 o         1 MOL     -0.564226
     87 C28         3.8680   -1.8130    3.6740 c3        1 MOL      0.204465
     88 C29         4.9390   -0.7760    3.2450 c3        1 MOL      0.128798
     89 C30         2.9530   -1.2450    4.8020 c3        1 MOL     -0.248576
     90 C31         5.9050   -0.3780    4.3000 c3        1 MOL     -0.091918
     91 H36         2.4030   -3.8410    3.4800 hn        1 MOL      0.240051
     92 H37         2.5890   -1.3550    2.0570 h1        1 MOL      0.122785
     93 H38         4.2910   -2.6990    4.1380 hc        1 MOL     -0.017367
     94 H39         4.4080    0.0790    2.8280 hc        1 MOL     -0.051811
     95 H40         5.5010   -1.3000    2.4790 hc        1 MOL     -0.051811
     96 H41         2.4560   -0.3160    4.5310 hc        1 MOL      0.051100
     97 H42         2.2070   -2.0140    5.0470 hc        1 MOL      0.051100
     98 H43         3.5770   -1.0610    5.6690 hc        1 MOL      0.051100
     99 H44         6.3200   -1.2470    4.8090 hc        1 MOL      0.011794
    100 H45         6.7370    0.2330    3.9600 hc        1 MOL      0.011794
    101 H46         5.4610    0.2390    5.0890 hc        1 MOL      0.011794
    102 N10         3.9530   -2.2220    0.1180 n         1 MOL     -0.108470
    103 C32         4.8050   -2.7120   -1.0090 c3        1 MOL      0.002365
    104 C33         5.7540   -1.6100   -1.5710 c         1 MOL      0.477628
    105 O16         6.3920   -1.7790   -2.6160 o         1 MOL     -0.522163
    106 C34         3.9400   -3.3710   -2.0730 c3        1 MOL     -0.186895
    107 C35         2.8410   -2.4770   -2.4790 c         1 MOL      0.772288
    108 O17         1.7360   -2.6590   -1.9560 o         1 MOL     -0.705737
    109 O18         2.8730   -1.7110   -3.4800 o         1 MOL     -0.705737
    110 H47         3.2720   -1.4980   -0.0400 hn        1 MOL      0.140914
    111 H48         5.4880   -3.4280   -0.5580 h1        1 MOL      0.082616
    112 H49         3.5070   -4.3240   -1.7740 hc        1 MOL      0.051656
    113 H50         4.5600   -3.4770   -2.9640 hc        1 MOL      0.051656
    114 N11         6.0070   -0.5240   -0.8250 n         1 MOL     -0.395219
    115 C36         6.7550    0.6590   -1.2520 c3        1 MOL      0.148016
    116 C37         6.2900    1.9330   -0.5400 c         1 MOL      0.453036
    117 O19         6.0360    1.9310    0.6940 o         1 MOL     -0.511223
    118 C38         8.1800    0.3490   -0.9060 c3        1 MOL     -0.225678
    119 C39         9.2010    1.4380   -1.2040 ca        1 MOL      0.140098
    120 C40         9.5930    2.2960   -0.1340 ca        1 MOL     -0.203781
    121 C41         9.6680    1.7120   -2.4650 ca        1 MOL     -0.203781
    122 C42        10.3500    3.4140   -0.4460 ca        1 MOL     -0.059967
    123 C43        10.5510    2.7570   -2.7560 ca        1 MOL     -0.059967
    124 C44        10.9050    3.6030   -1.6740 ca        1 MOL     -0.159081
    125 H51         5.5040   -0.4920    0.0510 hn        1 MOL      0.218402
    126 H52         6.6610    0.7590   -2.3280 h1        1 MOL      0.056399
    127 H53         8.5040   -0.4740   -1.5370 hc        1 MOL      0.100058
    128 H54         8.1230   -0.0030    0.1250 hc        1 MOL      0.100058
    129 H55         9.0580    2.2020    0.7980 ha        1 MOL      0.132026
    130 H56         9.3350    1.0860   -3.2780 ha        1 MOL      0.132026
    131 H57        10.6010    4.0530    0.3870 ha        1 MOL      0.094304
    132 H58        10.9850    2.9530   -3.7290 ha        1 MOL      0.094304
    133 H59        11.4770    4.4820   -1.9500 ha        1 MOL      0.105367
    134 N12         6.3060    3.0780   -1.2620 n         1 MOL     -0.305005
    135 C45         6.2810    4.4590   -0.6550 c3        1 MOL      0.041080
    136 C46         5.0700    4.8700    0.2630 c         1 MOL      0.337575
    137 O20         5.1400    5.9220    0.8150 o         1 MOL     -0.496845
    138 C47         6.4170    5.5020   -1.8880 c3        1 MOL     -0.081231
    139 C48         7.1250    4.6670   -2.9760 c3        1 MOL     -0.027707
    140 C49         6.5780    3.2770   -2.7300 c3        1 MOL      0.032543
    141 H60         7.2050    4.5840   -0.0820 h1        1 MOL      0.079980
    142 H61         5.4020    5.6820   -2.2460 hc        1 MOL      0.058658
    143 H62         6.9450    6.4210   -1.6390 hc        1 MOL      0.058658
    144 H63         6.9230    4.9640   -4.0030 hc        1 MOL      0.027167
    145 H64         8.1950    4.5450   -2.8210 hc        1 MOL      0.027167
    146 H65         5.6430    3.1800   -3.2760 h1        1 MOL      0.054468
    147 H66         7.2350    2.5720   -3.2490 h1        1 MOL      0.054468
    148 N13         4.0640    3.9860    0.3490 n         1 MOL     -0.049982
    149 C50         2.8010    4.2380    0.8860 c3        1 MOL     -0.303278
    150 C51         2.8710    4.3820    2.4580 c         1 MOL      0.484654
    151 O21         1.9290    5.0070    3.0480 o         1 MOL     -0.538564
    152 C52         1.8390    3.0950    0.5210 c3        1 MOL      0.043142
    153 C53         2.1420    1.7970    1.2690 c3        1 MOL     -0.104758
    154 C54         1.4600    0.6230    0.6010 c         1 MOL      0.686506
    155 O22         1.9750   -0.0770   -0.2700 o         1 MOL     -0.725902
    156 O23         0.2800    0.4150    0.9700 o         1 MOL     -0.725902
    157 H67         4.2100    3.1530   -0.2050 hn        1 MOL      0.170595
    158 H68         2.3480    5.1160    0.4290 h1        1 MOL      0.154494
    159 H69         1.9170    2.9480   -0.5580 hc        1 MOL      0.047356
    160 H70         0.7910    3.3710    0.6250 hc        1 MOL      0.047356
    161 H71         1.8530    1.8050    2.3220 hc        1 MOL      0.037134
    162 H72         3.1840    1.4750    1.1600 hc        1 MOL      0.037134
    163 N14         3.9470    4.0010    3.1390 n         1 MOL     -0.160709
    164 C55         4.2060    4.3010    4.5640 c3        1 MOL     -0.277420
    165 H73         5.2440    4.0640    4.8020 h1        1 MOL      0.113126
    166 H74         4.0230    5.3590    4.7530 h1        1 MOL      0.113126
    167 H75         3.5450    3.7010    5.1890 h1        1 MOL      0.113126
    168 H76         4.7140    3.6180    2.6100 hn        1 MOL      0.215986
    169 Ca1        -0.2930   -1.4210   -0.8880 Ca        1 MOL      1.743242
    170 O24         0.5100   -0.6010   -3.2960 oh        1 MOL     -0.954265
    171 H77         1.3150   -1.1110   -3.2370 ho        1 MOL      0.436585
    172 H78         0.5880   -0.1150   -4.1090 ho        1 MOL      0.436585
    173 O25        -2.3170   -1.5100    0.9970 oh        1 MOL     -0.954265
    174 H79        -2.3380   -0.7870    1.6090 ho        1 MOL      0.436585
    175 H80        -3.2170   -1.5790    0.6680 ho        1 MOL      0.436585
@<TRIPOS>BOND
     1    1    2 1   
     2    1    4 1   
     3    1    5 1   
     4    1    6 1   
     5    2    3 2   
     6    2    7 1   
     7    7    8 1   
     8    7   15 1   
     9    8    9 1   
    10    8   11 1   
    11    8   16 1   
    12    9   10 2   
    13    9   19 1   
    14   11   12 1   
    15   11   17 1   
    16   11   18 1   
    17   12   13 1   
    18   12   14 1   
    19   19   20 1   
    20   19   24 1   
    21   20   21 1   
    22   20   23 1   
    23   20   25 1   
    24   21   22 2   
    25   21   29 1   
    26   23   26 1   
    27   23   27 1   
    28   23   28 1   
    29   29   30 1   
    30   29   37 1   
    31   30   31 1   
    32   30   33 1   
    33   30   38 1   
    34   31   32 2   
    35   31   41 1   
    36   33   34 1   
    37   33   39 1   
    38   33   40 1   
    39   34   35 1   
    40   34   36 1   
    41   41   42 1   
    42   41   45 1   
    43   42   43 1   
    44   42   46 1   
    45   42   47 1   
    46   43   44 2   
    47   43   48 1   
    48   48   49 1   
    49   48   56 1   
    50   49   50 1   
    51   49   52 1   
    52   49   57 1   
    53   50   51 2   
    54   50   62 1   
    55   52   53 1   
    56   52   58 1   
    57   52   59 1   
    58   53   54 1   
    59   53   55 2   
    60   54   60 1   
    61   54   61 1   
    62   62   63 1   
    63   62   66 1   
    64   63   64 1   
    65   63   67 1   
    66   63   68 1   
    67   64   65 2   
    68   64   69 1   
    69   69   70 1   
    70   69   76 1   
    71   70   71 1   
    72   70   73 1   
    73   70   77 1   
    74   71   72 2   
    75   71   83 1   
    76   73   74 1   
    77   73   75 1   
    78   73   78 1   
    79   74   80 1   
    80   74   81 1   
    81   74   82 1   
    82   75   79 1   
    83   83   84 1   
    84   83   91 1   
    85   84   85 1   
    86   84   87 1   
    87   84   92 1   
    88   85   86 2   
    89   85  102 1   
    90   87   88 1   
    91   87   89 1   
    92   87   93 1   
    93   88   90 1   
    94   88   94 1   
    95   88   95 1   
    96   89   96 1   
    97   89   97 1   
    98   89   98 1   
    99   90   99 1   
   100   90  100 1   
   101   90  101 1   
   102  102  103 1   
   103  102  110 1   
   104  103  104 1   
   105  103  106 1   
   106  103  111 1   
   107  104  105 2   
   108  104  114 1   
   109  106  107 1   
   110  106  112 1   
   111  106  113 1   
   112  107  108 1   
   113  107  109 1   
   114  114  115 1   
   115  114  125 1   
   116  115  116 1   
   117  115  118 1   
   118  115  126 1   
   119  116  117 2   
   120  116  134 1   
   121  118  119 1   
   122  118  127 1   
   123  118  128 1   
   124  119  120 ar  
   125  119  121 ar  
   126  120  122 ar  
   127  120  129 1   
   128  121  123 ar  
   129  121  130 1   
   130  122  124 ar  
   131  122  131 1   
   132  123  124 ar  
   133  123  132 1   
   134  124  133 1   
   135  134  135 1   
   136  134  140 1   
   137  135  136 1   
   138  135  138 1   
   139  135  141 1   
   140  136  137 2   
   141  136  148 1   
   142  138  139 1   
   143  138  142 1   
   144  138  143 1   
   145  139  140 1   
   146  139  144 1   
   147  139  145 1   
   148  140  146 1   
   149  140  147 1   
   150  148  149 1   
   151  148  157 1   
   152  149  150 1   
   153  149  152 1   
   154  149  158 1   
   155  150  151 2   
   156  150  163 1   
   157  152  153 1   
   158  152  159 1   
   159  152  160 1   
   160  153  154 1   
   161  153  161 1   
   162  153  162 1   
   163  154  155 1   
   164  154  156 1   
   165  163  164 1   
   166  163  168 1   
   167  164  165 1   
   168  164  166 1   
   169  164  167 1   
   170  170  171 1   
   171  170  172 1   
   172  173  174 1   
   173  173  175 1   
@<TRIPOS>SUBSTRUCTURE
     1 MOL         1 TEMP              0 ****  ****    0 ROOT
