@<TRIPOS>MOLECULE
MOL
  189   185     1     0     0
SMALL
resp


@<TRIPOS>ATOM
      1 C1         12.0550    4.5610   -3.8800 c3        1 MOL     -0.375300
      2 C2         11.8310    3.3100   -3.0060 c         1 MOL      0.634779
      3 O1         12.4590    2.2550   -3.3170 o         1 MOL     -0.576223
      4 H1         11.3910    5.3590   -3.5470 hc        1 MOL      0.108860
      5 H2         13.0910    4.8880   -3.7880 hc        1 MOL      0.108860
      6 H3         11.8400    4.3210   -4.9210 hc        1 MOL      0.108860
      7 N1         11.1010    3.4800   -1.9020 n         1 MOL     -0.280595
      8 C3         10.8480    2.4340   -0.9000 c3        1 MOL     -0.178509
      9 C4          9.4180    1.9490   -0.7650 c         1 MOL      0.635974
     10 O2          8.4550    2.6910   -0.8200 o         1 MOL     -0.617488
     11 C5         11.5300    2.8560    0.3970 c3        1 MOL     -0.263434
     12 C6         11.2480    4.2550    0.8450 c         1 MOL      0.878278
     13 O3         10.2130    4.9420    0.5900 o         1 MOL     -0.718284
     14 O4         12.1190    4.7950    1.5920 o         1 MOL     -0.718284
     15 H4         10.7790    4.4230   -1.7330 hn        1 MOL      0.100694
     16 H5         11.3990    1.5420   -1.1890 h1        1 MOL      0.099297
     17 H6         12.5890    2.8370    0.1500 hc        1 MOL      0.102958
     18 H7         11.2890    2.1290    1.1670 hc        1 MOL      0.102958
     19 N2          9.2620    0.5660   -0.6960 n         1 MOL     -0.487824
     20 C7          8.0110   -0.1670   -1.0580 c3        1 MOL      0.036889
     21 C8          6.8670    0.1970   -0.1380 c         1 MOL      0.391886
     22 O5          7.0830    0.1550    1.0600 o         1 MOL     -0.495480
     23 C9          8.2710   -1.7230   -1.0360 c3        1 MOL     -0.463120
     24 C10         7.0090   -2.4520   -1.5210 c3        1 MOL      0.210364
     25 C11         7.3120   -3.9470   -1.6460 c3        1 MOL     -0.146286
     26 C12         5.9620   -4.5960   -1.9900 c3        1 MOL      0.089415
     27 N3          6.1490   -6.0490   -2.0870 n4        1 MOL     -0.196892
     28 H8         10.1170    0.0460   -0.5330 hn        1 MOL      0.317346
     29 H9          7.8500    0.1800   -2.0740 h1        1 MOL      0.091284
     30 H10         8.4640   -2.0340   -0.0070 hc        1 MOL      0.166830
     31 H11         9.1220   -1.9570   -1.6790 hc        1 MOL      0.166830
     32 H12         6.6840   -2.0740   -2.4870 hc        1 MOL      0.024843
     33 H13         6.2180   -2.2980   -0.7800 hc        1 MOL      0.024843
     34 H14         7.7410   -4.2560   -0.6920 hc        1 MOL      0.047401
     35 H15         8.0480   -4.0280   -2.4370 hc        1 MOL      0.047401
     36 H16         5.5720   -4.1290   -2.8900 hx        1 MOL      0.066032
     37 H17         5.1950   -4.4120   -1.2330 hx        1 MOL      0.066032
     38 H18         6.8900   -6.4570   -1.5380 hn        1 MOL      0.249827
     39 H19         5.2820   -6.5520   -1.9260 hn        1 MOL      0.249827
     40 H20         6.4060   -6.2400   -3.0440 hn        1 MOL      0.249827
     41 N4          5.7340    0.3360   -0.6870 n         1 MOL     -0.236500
     42 C13         4.4720    0.5350    0.0130 c3        1 MOL      0.423772
     43 C14         3.4560   -0.5130   -0.4610 c         1 MOL      0.182376
     44 O6          3.5700   -0.8440   -1.6230 o         1 MOL     -0.553523
     45 C15         3.9600    1.9850   -0.1820 c3        1 MOL     -0.055012
     46 C16         4.9840    3.0930   -0.0060 c         1 MOL      0.749510
     47 O7          5.2150    3.8280   -0.9680 o         1 MOL     -0.809558
     48 O8          5.5870    3.2290    1.0700 o         1 MOL     -0.809558
     49 H21         5.6660    0.2310   -1.6890 hn        1 MOL      0.186329
     50 H22         4.6100    0.2950    1.0710 h1        1 MOL     -0.017016
     51 H23         3.2540    2.1350    0.6390 hc        1 MOL      0.026652
     52 H24         3.4990    2.1080   -1.1650 hc        1 MOL      0.026652
     53 N5          2.5420   -1.1040    0.3060 n         1 MOL     -0.165414
     54 C17         2.3500   -0.8980    1.7390 c3        1 MOL     -0.267562
     55 C18         2.7950   -2.1140    2.6560 c         1 MOL      0.749238
     56 O9          3.8110   -2.7980    2.3640 o         1 MOL     -0.599947
     57 H25         1.9020   -1.7160   -0.1790 hn        1 MOL      0.245164
     58 H26         1.2790   -0.7720    1.9140 h1        1 MOL      0.097230
     59 H27         2.8740   -0.0100    2.1060 h1        1 MOL      0.097230
     60 N6          2.0500   -2.3600    3.7280 n         1 MOL     -0.619390
     61 C19         2.0010   -3.6550    4.4440 c3        1 MOL      0.209552
     62 C20         0.9630   -4.5450    3.7410 c         1 MOL      0.693149
     63 O10        -0.0640   -4.0760    3.3780 o         1 MOL     -0.526271
     64 C21         1.6980   -3.3770    5.9340 c3        1 MOL     -0.400375
     65 C22         1.4390   -4.5650    6.8380 c         1 MOL      0.757822
     66 O11         1.7040   -5.7560    6.4930 o         1 MOL     -0.676780
     67 O12         0.9530   -4.3090    7.9600 o         1 MOL     -0.676780
     68 H28         1.3510   -1.6830    3.9830 hn        1 MOL      0.319309
     69 H29         2.9180   -4.2460    4.3990 h1        1 MOL      0.022726
     70 H30         0.7700   -2.8170    5.9610 hc        1 MOL      0.114144
     71 H31         2.6450   -2.9190    6.2420 hc        1 MOL      0.114144
     72 N7          1.2690   -5.7890    3.3390 n         1 MOL     -0.653950
     73 C23         0.3240   -6.7510    2.6250 c3        1 MOL      0.041740
     74 C24        -0.2990   -6.3740    1.2610 c         1 MOL      0.295259
     75 O13        -1.0510   -7.2330    0.6290 o         1 MOL     -0.544907
     76 H32         2.1650   -6.2620    3.4410 hn        1 MOL      0.322415
     77 H33        -0.5220   -6.9220    3.2930 h1        1 MOL      0.113293
     78 H34         0.7520   -7.7490    2.5800 h1        1 MOL      0.113293
     79 N8         -0.1040   -5.1560    0.8200 n         1 MOL     -0.133309
     80 C25        -0.1960   -4.7890   -0.5720 c3        1 MOL      0.058986
     81 C26        -0.4440   -3.2830   -0.7280 c         1 MOL      0.358634
     82 O14         0.0230   -2.4800    0.1230 o         1 MOL     -0.433560
     83 C27         1.0130   -5.2610   -1.3690 c3        1 MOL      0.244179
     84 C28         0.8190   -5.2810   -2.9200 c3        1 MOL     -0.229042
     85 O15         2.1600   -4.4040   -1.0990 oh        1 MOL     -0.586798
     86 H35         0.2100   -4.4880    1.5090 hn        1 MOL      0.134132
     87 H36        -1.0800   -5.3550   -0.8700 h1        1 MOL      0.031017
     88 H37         1.1030   -6.2910   -1.0210 h1        1 MOL      0.025676
     89 H38         2.4600   -4.6480   -0.2160 ho        1 MOL      0.345943
     90 H39        -0.0220   -5.9440   -3.1210 hc        1 MOL      0.055634
     91 H40         0.5710   -4.2730   -3.2610 hc        1 MOL      0.055634
     92 H41         1.7240   -5.7330   -3.3090 hc        1 MOL      0.055634
     93 N9         -1.2670   -2.8910   -1.7040 n         1 MOL     -0.116752
     94 C29        -1.6620   -1.4610   -1.9160 c3        1 MOL     -0.502114
     95 C30        -3.2350   -1.2810   -1.6700 c         1 MOL      0.919218
     96 O16        -3.7100   -0.3180   -1.0670 o         1 MOL     -0.570983
     97 C31        -1.1710   -0.8400   -3.2250 c3        1 MOL      0.130598
     98 C32         0.4170   -1.0630   -3.4300 c3        1 MOL      0.011593
     99 C33        -1.7550    0.5860   -3.4100 c3        1 MOL     -0.378883
    100 C34         0.9330   -0.6320   -4.8520 c3        1 MOL     -0.340454
    101 H42        -1.6350   -3.5670   -2.3500 hn        1 MOL      0.205306
    102 H43        -1.2520   -0.9630   -1.0340 h1        1 MOL      0.164183
    103 H44        -1.5620   -1.4980   -3.9980 hc        1 MOL      0.005088
    104 H45         0.7090   -2.0970   -3.2840 hc        1 MOL      0.078526
    105 H46         0.9900   -0.4780   -2.7110 hc        1 MOL      0.078526
    106 H47        -1.5300    1.1690   -2.5130 hc        1 MOL      0.119384
    107 H48        -1.2550    1.0150   -4.2710 hc        1 MOL      0.119384
    108 H49        -2.8450    0.5200   -3.5200 hc        1 MOL      0.119384
    109 H50         0.5670    0.3740   -5.0760 hc        1 MOL      0.087789
    110 H51         2.0150   -0.5840   -4.7320 hc        1 MOL      0.087789
    111 H52         0.5620   -1.3530   -5.5750 hc        1 MOL      0.087789
    112 N10        -3.9430   -2.3570   -1.9350 n         1 MOL     -0.660589
    113 C35        -5.3100   -2.6220   -1.3560 c3        1 MOL     -0.188353
    114 C36        -6.3780   -2.2900   -2.3960 c         1 MOL      0.754062
    115 O17        -6.1760   -2.5820   -3.5650 o         1 MOL     -0.541023
    116 C37        -5.4620   -4.1100   -0.9020 c3        1 MOL      0.386361
    117 C38        -4.2120   -4.6680   -0.2680 c3        1 MOL     -0.283586
    118 O18        -6.6020   -4.3880   -0.0890 oh        1 MOL     -0.606831
    119 H53        -3.4890   -3.1470   -2.3610 hn        1 MOL      0.344356
    120 H54        -5.4260   -2.1180   -0.3890 h1        1 MOL      0.174754
    121 H55        -5.5390   -4.6990   -1.8160 h1        1 MOL     -0.033802
    122 H56        -6.7380   -5.3160   -0.2970 ho        1 MOL      0.391052
    123 H57        -4.3320   -5.6000    0.2830 hc        1 MOL      0.088034
    124 H58        -3.4400   -4.7760   -1.0290 hc        1 MOL      0.088034
    125 H59        -3.7940   -3.8980    0.3810 hc        1 MOL      0.088034
    126 N11        -7.4760   -1.6340   -2.0360 n         1 MOL     -0.775351
    127 C39        -8.4790   -1.0020   -2.9380 c3        1 MOL      0.264971
    128 C40        -8.6680    0.5210   -2.7620 c         1 MOL      0.476347
    129 O19        -9.1420    1.1590   -3.7230 o         1 MOL     -0.572850
    130 C41        -9.8500   -1.7080   -2.8170 c3        1 MOL      0.327560
    131 C42       -10.6540   -1.5690   -1.5540 c3        1 MOL     -0.100774
    132 O20        -9.6950   -3.1090   -3.0020 oh        1 MOL     -0.641829
    133 H60        -7.7750   -1.6280   -1.0750 hn        1 MOL      0.372522
    134 H61        -8.2600   -1.1070   -3.9980 h1        1 MOL      0.025777
    135 H62       -10.5030   -1.3450   -3.6120 h1        1 MOL     -0.026267
    136 H63        -9.7940   -3.3350   -3.9300 ho        1 MOL      0.402926
    137 H64       -11.5720   -2.1550   -1.5700 hc        1 MOL      0.031967
    138 H65       -10.0880   -1.8690   -0.6670 hc        1 MOL      0.031967
    139 H66       -11.0130   -0.5490   -1.4730 hc        1 MOL      0.031967
    140 N12        -8.5380    1.0170   -1.5660 n         1 MOL     -0.212681
    141 C43        -8.5560    2.3940   -1.1750 c3        1 MOL     -0.031312
    142 C44        -7.6690    2.7020    0.0500 c         1 MOL      0.372365
    143 O21        -7.2320    1.7920    0.7550 o         1 MOL     -0.497838
    144 C45       -10.0420    2.9460   -0.8500 c3        1 MOL     -0.335947
    145 C46       -10.6670    2.1440    0.3170 c3        1 MOL      0.102694
    146 C47       -12.2060    2.4450    0.5230 c3        1 MOL     -0.219595
    147 C48       -12.7780    1.8400    1.7790 c3        1 MOL      0.119743
    148 N13       -14.2470    1.9160    1.8500 n4        1 MOL     -0.387772
    149 H67        -8.3270    0.3590   -0.8300 hn        1 MOL      0.164147
    150 H68        -8.1340    2.9600   -2.0020 h1        1 MOL      0.099752
    151 H69       -10.7040    2.8410   -1.7200 hc        1 MOL      0.092795
    152 H70        -9.9590    3.9920   -0.5360 hc        1 MOL      0.092795
    153 H71       -10.1180    2.5720    1.1470 hc        1 MOL     -0.008342
    154 H72       -10.4250    1.0820    0.2370 hc        1 MOL     -0.008342
    155 H73       -12.6880    1.9980   -0.3400 hc        1 MOL      0.091826
    156 H74       -12.4050    3.5140    0.4270 hc        1 MOL      0.091826
    157 H75       -12.4230    2.3940    2.6400 hx        1 MOL      0.076020
    158 H76       -12.4530    0.8020    1.9000 hx        1 MOL      0.076020
    159 H77       -14.6200    1.5560    2.7170 hn        1 MOL      0.304582
    160 H78       -14.5520    2.8690    1.8780 hn        1 MOL      0.304582
    161 H79       -14.5390    1.3960    1.0310 hn        1 MOL      0.304582
    162 N14        -7.4560    3.9760    0.3280 n         1 MOL     -0.128265
    163 C49        -6.8130    4.5020    1.5790 c3        1 MOL      0.373729
    164 C50        -5.2850    4.4760    1.5660 c         1 MOL      0.324007
    165 O22        -4.6910    3.9430    2.5730 o         1 MOL     -0.546021
    166 C51        -7.2820    5.9730    1.7700 c3        1 MOL     -0.258042
    167 C52        -8.7620    5.9540    2.1340 c3        1 MOL     -0.262462
    168 C53        -9.3740    7.3310    2.0870 c         1 MOL      0.598074
    169 O23        -8.7680    8.2120    2.7370 o         1 MOL     -0.648847
    170 O24       -10.6130    7.4380    1.9020 o         1 MOL     -0.648847
    171 H80        -7.9790    4.6350   -0.2350 hn        1 MOL      0.222244
    172 H81        -7.1270    3.9090    2.4390 h1        1 MOL     -0.025904
    173 H82        -7.1660    6.4460    0.7920 hc        1 MOL      0.103090
    174 H83        -6.6990    6.4000    2.5860 hc        1 MOL      0.103090
    175 H84        -8.7880    5.6370    3.1820 hc        1 MOL      0.104942
    176 H85        -9.3800    5.4130    1.4220 hc        1 MOL      0.104942
    177 N15        -4.4770    4.9050    0.6330 n         1 MOL     -0.364346
    178 C54        -4.8270    5.4170   -0.7400 c3        1 MOL      0.060583
    179 H86        -5.0670    6.4790   -0.6810 h1        1 MOL      0.005688
    180 H87        -3.9780    5.2740   -1.4090 h1        1 MOL      0.005688
    181 H88        -5.6890    4.8710   -1.1240 h1        1 MOL      0.005688
    182 H89        -3.4840    4.7330    0.7460 hn        1 MOL      0.303300
    183 Ca1         7.5270    4.9580    0.1520 Ca        1 MOL      1.697127
    184 O25         8.1340    6.2620    2.8760 oh        1 MOL     -0.809225
    185 H90         7.2620    6.6540    2.9660 ho        1 MOL      0.402598
    186 H91         8.0800    5.4380    3.3450 ho        1 MOL      0.402598
    187 O26         8.0080    3.1740    2.2520 oh        1 MOL     -0.809225
    188 H92         8.6690    2.8530    2.8590 ho        1 MOL      0.402598
    189 H93         7.2020    2.7090    2.5100 ho        1 MOL      0.402598
@<TRIPOS>BOND
     1    1    2 1   
     2    1    4 1   
     3    1    5 1   
     4    1    6 1   
     5    2    3 2   
     6    2    7 1   
     7    7    8 1   
     8    7   15 1   
     9    8    9 1   
    10    8   11 1   
    11    8   16 1   
    12    9   10 2   
    13    9   19 1   
    14   11   12 1   
    15   11   17 1   
    16   11   18 1   
    17   12   13 1   
    18   12   14 1   
    19   19   20 1   
    20   19   28 1   
    21   20   21 1   
    22   20   23 1   
    23   20   29 1   
    24   21   22 2   
    25   21   41 1   
    26   23   24 1   
    27   23   30 1   
    28   23   31 1   
    29   24   25 1   
    30   24   32 1   
    31   24   33 1   
    32   25   26 1   
    33   25   34 1   
    34   25   35 1   
    35   26   27 1   
    36   26   36 1   
    37   26   37 1   
    38   27   38 1   
    39   27   39 1   
    40   27   40 1   
    41   41   42 1   
    42   41   49 1   
    43   42   43 1   
    44   42   45 1   
    45   42   50 1   
    46   43   44 2   
    47   43   53 1   
    48   45   46 1   
    49   45   51 1   
    50   45   52 1   
    51   46   47 1   
    52   46   48 1   
    53   53   54 1   
    54   53   57 1   
    55   54   55 1   
    56   54   58 1   
    57   54   59 1   
    58   55   56 2   
    59   55   60 1   
    60   60   61 1   
    61   60   68 1   
    62   61   62 1   
    63   61   64 1   
    64   61   69 1   
    65   62   63 2   
    66   62   72 1   
    67   64   65 1   
    68   64   70 1   
    69   64   71 1   
    70   65   66 1   
    71   65   67 1   
    72   72   73 1   
    73   72   76 1   
    74   73   74 1   
    75   73   77 1   
    76   73   78 1   
    77   74   75 2   
    78   74   79 1   
    79   79   80 1   
    80   79   86 1   
    81   80   81 1   
    82   80   83 1   
    83   80   87 1   
    84   81   82 2   
    85   81   93 1   
    86   83   84 1   
    87   83   85 1   
    88   83   88 1   
    89   84   90 1   
    90   84   91 1   
    91   84   92 1   
    92   85   89 1   
    93   93   94 1   
    94   93  101 1   
    95   94   95 1   
    96   94   97 1   
    97   94  102 1   
    98   95   96 2   
    99   95  112 1   
   100   97   98 1   
   101   97   99 1   
   102   97  103 1   
   103   98  100 1   
   104   98  104 1   
   105   98  105 1   
   106   99  106 1   
   107   99  107 1   
   108   99  108 1   
   109  100  109 1   
   110  100  110 1   
   111  100  111 1   
   112  112  113 1   
   113  112  119 1   
   114  113  114 1   
   115  113  116 1   
   116  113  120 1   
   117  114  115 2   
   118  114  126 1   
   119  116  117 1   
   120  116  118 1   
   121  116  121 1   
   122  117  123 1   
   123  117  124 1   
   124  117  125 1   
   125  118  122 1   
   126  126  127 1   
   127  126  133 1   
   128  127  128 1   
   129  127  130 1   
   130  127  134 1   
   131  128  129 2   
   132  128  140 1   
   133  130  131 1   
   134  130  132 1   
   135  130  135 1   
   136  131  137 1   
   137  131  138 1   
   138  131  139 1   
   139  132  136 1   
   140  140  141 1   
   141  140  149 1   
   142  141  142 1   
   143  141  144 1   
   144  141  150 1   
   145  142  143 2   
   146  142  162 1   
   147  144  145 1   
   148  144  151 1   
   149  144  152 1   
   150  145  146 1   
   151  145  153 1   
   152  145  154 1   
   153  146  147 1   
   154  146  155 1   
   155  146  156 1   
   156  147  148 1   
   157  147  157 1   
   158  147  158 1   
   159  148  159 1   
   160  148  160 1   
   161  148  161 1   
   162  162  163 1   
   163  162  171 1   
   164  163  164 1   
   165  163  166 1   
   166  163  172 1   
   167  164  165 2   
   168  164  177 1   
   169  166  167 1   
   170  166  173 1   
   171  166  174 1   
   172  167  168 1   
   173  167  175 1   
   174  167  176 1   
   175  168  169 1   
   176  168  170 1   
   177  177  178 1   
   178  177  182 1   
   179  178  179 1   
   180  178  180 1   
   181  178  181 1   
   182  184  185 1   
   183  184  186 1   
   184  187  188 1   
   185  187  189 1   
@<TRIPOS>SUBSTRUCTURE
     1 MOL         1 TEMP              0 ****  ****    0 ROOT
