@<TRIPOS>MOLECULE
MOL
  181   177     1     0     0
SMALL
resp


@<TRIPOS>ATOM
      1 C1         10.0100    7.2650   -1.0500 c3        1 MOL     -0.223657
      2 C2          9.1900    6.2460   -0.2310 c         1 MOL      0.648169
      3 O1          8.6470    6.6580    0.7720 o         1 MOL     -0.573474
      4 H1          9.3390    8.0040   -1.4870 hc        1 MOL      0.050663
      5 H2         10.7250    7.7650   -0.3960 hc        1 MOL      0.050663
      6 H3         10.5450    6.7460   -1.8450 hc        1 MOL      0.050663
      7 N1          9.1550    4.9290   -0.4830 n         1 MOL     -0.531608
      8 C3          9.9870    4.1800   -1.5080 c3        1 MOL      0.077922
      9 C4         10.9330    3.1900   -0.9210 c         1 MOL      0.338924
     10 O2         11.4850    2.2810   -1.5480 o         1 MOL     -0.511555
     11 C5          9.0730    3.5340   -2.5150 c3        1 MOL     -0.240629
     12 C6          8.1130    2.4060   -2.1130 c         1 MOL      0.887871
     13 O3          7.7740    2.1830   -0.9330 o         1 MOL     -0.818808
     14 O4          7.6120    1.7300   -3.0150 o         1 MOL     -0.818808
     15 H4          8.5920    4.4150    0.1750 hn        1 MOL      0.351997
     16 H5         10.5840    4.8840   -2.0930 h1        1 MOL      0.116346
     17 H6          9.6280    3.2730   -3.4240 hc        1 MOL      0.060222
     18 H7          8.5080    4.4080   -2.8430 hc        1 MOL      0.060222
     19 N2         10.9830    3.0980    0.4420 n         1 MOL     -0.275078
     20 C7         11.8400    2.2260    1.2100 c3        1 MOL      0.163091
     21 C8         11.1300    0.9940    1.7920 c         1 MOL      0.515098
     22 O5         11.6060    0.3570    2.6810 o         1 MOL     -0.543587
     23 C9         12.5410    3.1750    2.1590 c3        1 MOL     -0.268932
     24 H8         10.6350    3.8480    1.0250 hn        1 MOL      0.200356
     25 H9         12.5650    1.7740    0.5400 h1        1 MOL      0.055302
     26 H10        13.3360    2.7920    2.7930 hc        1 MOL      0.075377
     27 H11        13.0220    3.9740    1.5850 hc        1 MOL      0.075377
     28 H12        11.8100    3.5810    2.8600 hc        1 MOL      0.075377
     29 N3          9.9820    0.5070    1.1680 n         1 MOL     -0.456003
     30 C10         9.2590   -0.6800    1.6160 c3        1 MOL      0.056854
     31 C11         8.6580   -1.5360    0.4060 c         1 MOL      0.427419
     32 O6          8.2940   -0.9870   -0.6460 o         1 MOL     -0.561480
     33 C12         8.1230   -0.3310    2.5860 c3        1 MOL     -0.098970
     34 C13         7.0620    0.6480    2.2030 c         1 MOL      0.696259
     35 O7          6.8400    1.6200    2.9730 o         1 MOL     -0.698675
     36 O8          6.3040    0.4830    1.2700 o         1 MOL     -0.698675
     37 H13         9.6570    1.0440    0.3790 hn        1 MOL      0.302125
     38 H14         9.9220   -1.3440    2.1800 h1        1 MOL      0.057935
     39 H15         8.5950   -0.0030    3.5180 hc        1 MOL      0.024014
     40 H16         7.6830   -1.3070    2.8020 hc        1 MOL      0.024014
     41 N4          8.3950   -2.8140    0.6160 n         1 MOL     -0.272543
     42 C14         7.8210   -3.6990   -0.3610 c3        1 MOL     -0.146529
     43 C15         6.3660   -3.4140   -0.8460 c         1 MOL      0.662588
     44 O9          5.8290   -2.4030   -0.4190 o         1 MOL     -0.529508
     45 H17         8.8920   -3.2410    1.3820 hn        1 MOL      0.248006
     46 H18         7.7980   -4.7120    0.0420 h1        1 MOL      0.087612
     47 H19         8.5560   -3.8490   -1.1470 h1        1 MOL      0.087612
     48 N5          5.8400   -4.2910   -1.6340 n         1 MOL     -0.740615
     49 C16         4.4190   -4.0340   -2.0870 c3        1 MOL      0.262403
     50 C17         3.3310   -4.2700   -0.9460 c         1 MOL      0.652999
     51 O10         3.6580   -4.9310    0.0690 o         1 MOL     -0.529531
     52 C18         4.1990   -4.8280   -3.3740 c3        1 MOL     -0.458635
     53 C19         4.7770   -4.3260   -4.6770 c         1 MOL      0.812430
     54 N6          4.8540   -5.1500   -5.6940 n         1 MOL     -0.817912
     55 O11         5.0910   -3.1720   -4.8810 o         1 MOL     -0.590051
     56 H20         6.3370   -5.0650   -2.0660 hn        1 MOL      0.375162
     57 H21         4.3470   -2.9640   -2.2620 h1        1 MOL      0.001394
     58 H22         3.1110   -4.8540   -3.4350 hc        1 MOL      0.101892
     59 H23         4.5310   -5.8590   -3.2320 hc        1 MOL      0.101892
     60 H24         4.4580   -6.0660   -5.5300 hn        1 MOL      0.383944
     61 H25         5.2950   -4.8210   -6.5460 hn        1 MOL      0.383944
     62 N7          2.1710   -3.7270   -1.0940 n         1 MOL     -0.553658
     63 C20         1.0600   -3.6880   -0.1780 c3        1 MOL     -0.047816
     64 C21         1.3020   -2.7500    1.0130 c         1 MOL      0.738771
     65 O12         2.2560   -1.9520    1.0280 o         1 MOL     -0.623438
     66 H26         2.1360   -3.1920   -1.9550 hn        1 MOL      0.341113
     67 H27         0.8760   -4.6750    0.2400 h1        1 MOL      0.105159
     68 H28         0.2180   -3.2300   -0.6960 h1        1 MOL      0.105159
     69 N8          0.6210   -3.0180    2.1310 n         1 MOL     -0.588789
     70 C22        -0.5180   -3.8780    2.3580 c3        1 MOL      0.145407
     71 C23        -1.7790   -3.1780    2.7220 c         1 MOL      0.389389
     72 O13        -2.7530   -3.9100    2.7650 o         1 MOL     -0.560582
     73 C24        -0.1530   -4.9860    3.4150 c3        1 MOL      0.348063
     74 C25         0.9810   -5.8870    3.0450 c3        1 MOL     -0.340023
     75 O14         0.0300   -4.4280    4.6780 oh        1 MOL     -0.638689
     76 H29         1.0010   -2.5680    2.9510 hn        1 MOL      0.368576
     77 H30        -0.7250   -4.3840    1.4120 h1        1 MOL      0.057147
     78 H31        -1.0550   -5.5880    3.5120 h1        1 MOL      0.001854
     79 H32        -0.3510   -5.0450    5.3020 ho        1 MOL      0.414883
     80 H33         1.8910   -5.3010    3.1810 hc        1 MOL      0.080033
     81 H34         1.0840   -6.8210    3.5920 hc        1 MOL      0.080033
     82 H35         0.9350   -6.1310    1.9790 hc        1 MOL      0.080033
     83 N9         -1.8310   -1.8630    2.7750 n         1 MOL     -0.288475
     84 C26        -2.9950   -0.9290    2.6190 c3        1 MOL      0.080733
     85 C27        -3.0840   -0.3440    1.1950 c         1 MOL      0.595279
     86 O15        -2.0710   -0.1130    0.5760 o         1 MOL     -0.610734
     87 C28        -2.8580    0.0930    3.7480 c3        1 MOL      0.158238
     88 C29        -2.7090   -0.4540    5.1440 c3        1 MOL     -0.020716
     89 C30        -4.1090    1.0550    3.6200 c3        1 MOL     -0.143048
     90 C31        -2.4240    0.6840    6.1840 c3        1 MOL     -0.124280
     91 H36        -0.9420   -1.4200    2.6070 hn        1 MOL      0.157192
     92 H37        -3.9230   -1.4240    2.9030 h1        1 MOL      0.062122
     93 H38        -1.9920    0.6870    3.4380 hc        1 MOL     -0.039161
     94 H39        -1.8690   -1.1250    5.2750 hc        1 MOL      0.001228
     95 H40        -3.6610   -0.9430    5.3620 hc        1 MOL      0.001228
     96 H41        -4.3440    1.2400    2.5720 hc        1 MOL      0.046641
     97 H42        -5.0340    0.5460    3.8900 hc        1 MOL      0.046641
     98 H43        -4.0240    2.0760    4.0090 hc        1 MOL      0.046641
     99 H44        -1.7330    1.4650    5.8530 hc        1 MOL      0.027489
    100 H45        -3.3110    1.1810    6.5780 hc        1 MOL      0.027489
    101 H46        -1.9100    0.1680    7.0010 hc        1 MOL      0.027489
    102 N10        -4.2360   -0.3960    0.5460 n         1 MOL     -0.435465
    103 C32        -5.5030   -1.0050    0.8830 c3        1 MOL      0.276106
    104 C33        -6.7430   -0.4540    0.1540 c         1 MOL      0.384191
    105 O16        -6.6150    0.4340   -0.7040 o         1 MOL     -0.489965
    106 C34        -5.4210   -2.5670    0.6410 c3        1 MOL     -0.263736
    107 C35        -5.2480   -3.1240   -0.7560 c         1 MOL      0.751490
    108 O17        -4.9900   -2.3870   -1.7110 o         1 MOL     -0.738744
    109 O18        -5.3870   -4.3240   -0.9600 o         1 MOL     -0.738744
    110 H47        -4.2270   -0.0480   -0.4050 hn        1 MOL      0.281630
    111 H48        -5.6270   -0.8860    1.9580 h1        1 MOL     -0.016730
    112 H49        -6.2540   -3.0890    1.1140 hc        1 MOL      0.027385
    113 H50        -4.5340   -2.8980    1.1680 hc        1 MOL      0.027385
    114 N11        -7.8630   -1.1000    0.3120 n         1 MOL     -0.448740
    115 C36        -9.1200   -0.6340   -0.3910 c3        1 MOL      0.493344
    116 C37        -9.9440    0.3830    0.4790 c         1 MOL      0.029323
    117 O19       -10.0460    0.2940    1.6820 o         1 MOL     -0.461629
    118 C38        -9.9380   -1.8700   -0.6710 c3        1 MOL     -0.474368
    119 C39       -11.1040   -1.7640   -1.6390 ca        1 MOL      0.241572
    120 C40       -12.3900   -1.3340   -1.1360 ca        1 MOL     -0.248409
    121 C41       -10.8890   -1.9310   -3.0210 ca        1 MOL     -0.248409
    122 C42       -13.4470   -1.1450   -2.0390 ca        1 MOL     -0.089469
    123 C43       -11.9590   -1.7690   -3.9140 ca        1 MOL     -0.089469
    124 C44       -13.2150   -1.3800   -3.4500 ca        1 MOL     -0.148633
    125 H51        -7.9520   -1.7880    1.0480 hn        1 MOL      0.301571
    126 H52        -8.7420   -0.1380   -1.2940 h1        1 MOL      0.018314
    127 H53       -10.2390   -2.2820    0.2910 hc        1 MOL      0.124021
    128 H54        -9.2530   -2.5700   -1.1550 hc        1 MOL      0.124021
    129 H55       -12.5290   -0.9630   -0.1320 ha        1 MOL      0.163340
    130 H56        -9.8940   -2.0430   -3.4400 ha        1 MOL      0.163340
    131 H57       -14.4120   -0.7900   -1.7160 ha        1 MOL      0.105622
    132 H58       -11.7200   -1.8170   -4.9670 ha        1 MOL      0.105622
    133 H59       -14.0420   -1.3430   -4.1410 ha        1 MOL      0.092521
    134 N12       -10.5810    1.3270   -0.1770 n         1 MOL      0.384069
    135 C45       -10.4030    1.7160   -1.5830 c3        1 MOL     -0.094990
    136 C46        -9.1610    2.5560   -1.7280 c         1 MOL      0.502038
    137 O20        -8.5370    2.5960   -2.7550 o         1 MOL     -0.573066
    138 C47       -11.5930    2.5020   -1.8950 c3        1 MOL      0.084199
    139 C48       -12.2150    3.0320   -0.6830 c3        1 MOL     -0.150867
    140 C49       -11.7720    1.9490    0.2780 c3        1 MOL     -0.032554
    141 H60       -10.3300    0.8450   -2.2230 h1        1 MOL      0.057382
    142 H61       -11.4140    3.2510   -2.6600 hc        1 MOL     -0.017519
    143 H62       -12.2400    1.7860   -2.4100 hc        1 MOL     -0.017519
    144 H63       -11.7840    4.0050   -0.4380 hc        1 MOL      0.048686
    145 H64       -13.2980    3.1100   -0.6900 hc        1 MOL      0.048686
    146 H65       -11.5590    2.3090    1.2870 h1        1 MOL      0.005020
    147 H66       -12.4840    1.1350    0.3950 h1        1 MOL      0.005020
    148 N13        -8.6930    3.1190   -0.6180 n         1 MOL     -0.406872
    149 C50        -7.4350    3.8690   -0.3830 c3        1 MOL      0.235489
    150 C51        -7.3990    5.1880   -1.2070 c         1 MOL      0.441587
    151 O21        -7.8990    6.1430   -0.6580 o         1 MOL     -0.606841
    152 C52        -7.1740    4.1090    1.0860 c3        1 MOL      0.006351
    153 C53        -6.7900    2.8420    1.8200 c3        1 MOL      0.269988
    154 C54        -6.8630    2.9850    3.3670 c         1 MOL      0.666010
    155 O22        -6.2220    3.8790    3.8870 o         1 MOL     -0.730833
    156 O23        -7.6870    2.2470    4.0160 o         1 MOL     -0.730833
    157 H67        -9.2360    2.9580    0.2170 hn        1 MOL      0.234458
    158 H68        -6.5550    3.3900   -0.7970 h1        1 MOL      0.024970
    159 H69        -8.0820    4.4790    1.5610 hc        1 MOL     -0.017218
    160 H70        -6.3230    4.7870    1.1890 hc        1 MOL     -0.017218
    161 H71        -5.7830    2.4710    1.6360 hc        1 MOL     -0.177997
    162 H72        -7.5150    2.0800    1.5520 hc        1 MOL     -0.177997
    163 N14        -6.8150    5.4190   -2.3630 n         1 MOL     -0.314712
    164 C55        -6.1540    4.3960   -3.1860 c3        1 MOL     -0.172404
    165 H73        -5.5240    4.8810   -3.9310 h1        1 MOL      0.084487
    166 H74        -5.5390    3.7590   -2.5500 h1        1 MOL      0.084487
    167 H75        -6.9080    3.7900   -3.6880 h1        1 MOL      0.084487
    168 H76        -6.8030    6.3760   -2.6830 hn        1 MOL      0.260107
    169 Ca1         6.0340    0.3270   -1.3460 Ca        1 MOL      1.778814
    170 O24         4.6570    2.3090   -2.4120 oh        1 MOL     -0.837449
    171 H77         3.8550    2.7830   -2.1810 ho        1 MOL      0.413890
    172 H78         4.6910    2.3200   -3.3630 ho        1 MOL      0.413890
    173 O25         3.6570    0.2060    0.3700 oh        1 MOL     -0.837449
    174 H79         2.9540   -0.4300    0.5090 ho        1 MOL      0.413890
    175 H80         4.0720    0.3000    1.2270 ho        1 MOL      0.413890
    176 O26         3.6710   -0.3660   -2.5170 oh        1 MOL     -0.837449
    177 H81         3.5790   -0.2270   -3.4620 ho        1 MOL      0.413890
    178 H82         2.7750   -0.2640   -2.1840 ho        1 MOL      0.413890
    179 O27         6.4610   -1.5040   -3.2730 oh        1 MOL     -0.837449
    180 H83         7.3450   -1.5980   -3.6450 ho        1 MOL      0.413890
    181 H84         5.9290   -2.1260   -3.7750 ho        1 MOL      0.413890
@<TRIPOS>BOND
     1    1    2 1   
     2    1    4 1   
     3    1    5 1   
     4    1    6 1   
     5    2    3 2   
     6    2    7 1   
     7    7    8 1   
     8    7   15 1   
     9    8    9 1   
    10    8   11 1   
    11    8   16 1   
    12    9   10 2   
    13    9   19 1   
    14   11   12 1   
    15   11   17 1   
    16   11   18 1   
    17   12   13 1   
    18   12   14 1   
    19   19   20 1   
    20   19   24 1   
    21   20   21 1   
    22   20   23 1   
    23   20   25 1   
    24   21   22 2   
    25   21   29 1   
    26   23   26 1   
    27   23   27 1   
    28   23   28 1   
    29   29   30 1   
    30   29   37 1   
    31   30   31 1   
    32   30   33 1   
    33   30   38 1   
    34   31   32 2   
    35   31   41 1   
    36   33   34 1   
    37   33   39 1   
    38   33   40 1   
    39   34   35 1   
    40   34   36 1   
    41   41   42 1   
    42   41   45 1   
    43   42   43 1   
    44   42   46 1   
    45   42   47 1   
    46   43   44 2   
    47   43   48 1   
    48   48   49 1   
    49   48   56 1   
    50   49   50 1   
    51   49   52 1   
    52   49   57 1   
    53   50   51 2   
    54   50   62 1   
    55   52   53 1   
    56   52   58 1   
    57   52   59 1   
    58   53   54 1   
    59   53   55 2   
    60   54   60 1   
    61   54   61 1   
    62   62   63 1   
    63   62   66 1   
    64   63   64 1   
    65   63   67 1   
    66   63   68 1   
    67   64   65 2   
    68   64   69 1   
    69   69   70 1   
    70   69   76 1   
    71   70   71 1   
    72   70   73 1   
    73   70   77 1   
    74   71   72 2   
    75   71   83 1   
    76   73   74 1   
    77   73   75 1   
    78   73   78 1   
    79   74   80 1   
    80   74   81 1   
    81   74   82 1   
    82   75   79 1   
    83   83   84 1   
    84   83   91 1   
    85   84   85 1   
    86   84   87 1   
    87   84   92 1   
    88   85   86 2   
    89   85  102 1   
    90   87   88 1   
    91   87   89 1   
    92   87   93 1   
    93   88   90 1   
    94   88   94 1   
    95   88   95 1   
    96   89   96 1   
    97   89   97 1   
    98   89   98 1   
    99   90   99 1   
   100   90  100 1   
   101   90  101 1   
   102  102  103 1   
   103  102  110 1   
   104  103  104 1   
   105  103  106 1   
   106  103  111 1   
   107  104  105 2   
   108  104  114 1   
   109  106  107 1   
   110  106  112 1   
   111  106  113 1   
   112  107  108 1   
   113  107  109 1   
   114  114  115 1   
   115  114  125 1   
   116  115  116 1   
   117  115  118 1   
   118  115  126 1   
   119  116  117 2   
   120  116  134 1   
   121  118  119 1   
   122  118  127 1   
   123  118  128 1   
   124  119  120 ar  
   125  119  121 ar  
   126  120  122 ar  
   127  120  129 1   
   128  121  123 ar  
   129  121  130 1   
   130  122  124 ar  
   131  122  131 1   
   132  123  124 ar  
   133  123  132 1   
   134  124  133 1   
   135  134  135 1   
   136  134  140 1   
   137  135  136 1   
   138  135  138 1   
   139  135  141 1   
   140  136  137 2   
   141  136  148 1   
   142  138  139 1   
   143  138  142 1   
   144  138  143 1   
   145  139  140 1   
   146  139  144 1   
   147  139  145 1   
   148  140  146 1   
   149  140  147 1   
   150  148  149 1   
   151  148  157 1   
   152  149  150 1   
   153  149  152 1   
   154  149  158 1   
   155  150  151 2   
   156  150  163 1   
   157  152  153 1   
   158  152  159 1   
   159  152  160 1   
   160  153  154 1   
   161  153  161 1   
   162  153  162 1   
   163  154  155 1   
   164  154  156 1   
   165  163  164 1   
   166  163  168 1   
   167  164  165 1   
   168  164  166 1   
   169  164  167 1   
   170  170  171 1   
   171  170  172 1   
   172  173  174 1   
   173  173  175 1   
   174  176  177 1   
   175  176  178 1   
   176  179  180 1   
   177  179  181 1   
@<TRIPOS>SUBSTRUCTURE
     1 MOL         1 TEMP              0 ****  ****    0 ROOT
