@<TRIPOS>MOLECULE
MOL
  186   183     1     0     0
SMALL
resp


@<TRIPOS>ATOM
      1 C1         11.2760    6.4990   -2.4460 c3        1 MOL     -0.290883
      2 C2         11.1760    5.1790   -1.6130 c         1 MOL      0.645397
      3 O1         11.6060    4.1270   -2.0380 o         1 MOL     -0.600517
      4 H1         11.3030    6.2560   -3.5090 hc        1 MOL      0.075061
      5 H2         10.4100    7.1270   -2.2390 hc        1 MOL      0.075061
      6 H3         12.1860    7.0330   -2.1740 hc        1 MOL      0.075061
      7 N1         10.5000    5.2570   -0.4840 n         1 MOL     -0.135944
      8 C3         10.4000    4.1000    0.4730 c3        1 MOL     -0.623643
      9 C4          9.3180    3.1400   -0.0650 c         1 MOL      0.644000
     10 O2          8.2610    3.5510   -0.6160 o         1 MOL     -0.546153
     11 C5         10.2160    4.6570    1.9480 c3        1 MOL      0.180804
     12 C6          9.2220    5.7970    2.1580 c         1 MOL      0.817768
     13 O3          8.3790    6.0960    1.2970 o         1 MOL     -0.742625
     14 O4          9.2230    6.3640    3.2640 o         1 MOL     -0.742625
     15 H4          9.8980    6.0450   -0.2810 hn        1 MOL      0.044331
     16 H5         11.3460    3.5630    0.3660 h1        1 MOL      0.213929
     17 H6         11.2140    4.9520    2.2630 hc        1 MOL      0.014130
     18 H7          9.8990    3.9200    2.6900 hc        1 MOL      0.014130
     19 N2          9.5280    1.8090    0.1090 n         1 MOL     -0.392912
     20 C7          8.5800    0.7980   -0.4010 c3        1 MOL     -0.066396
     21 C8          7.5300    0.4820    0.6190 c         1 MOL      0.719482
     22 O5          7.8510    0.2310    1.7590 o         1 MOL     -0.586128
     23 C9          9.3670   -0.4560   -0.9690 c3        1 MOL     -0.096850
     24 C10         8.4430   -1.3600   -1.7930 c3        1 MOL      0.235999
     25 C11         9.1540   -2.6560   -2.2670 c3        1 MOL     -0.316004
     26 C12         9.6630   -3.5030   -1.0170 c3        1 MOL     -0.056103
     27 N3          8.5440   -4.2870   -0.4030 n4        1 MOL     -0.303004
     28 H8         10.3760    1.5340    0.5810 hn        1 MOL      0.281300
     29 H9          8.0940    1.3260   -1.2190 h1        1 MOL      0.117729
     30 H10         9.7800   -0.9380   -0.0880 hc        1 MOL      0.049997
     31 H11        10.2490   -0.1680   -1.5490 hc        1 MOL      0.049997
     32 H12         8.0590   -0.8180   -2.6530 hc        1 MOL     -0.032484
     33 H13         7.5790   -1.6480   -1.1830 hc        1 MOL     -0.032484
     34 H14        10.0560   -2.3600   -2.8060 hc        1 MOL      0.128801
     35 H15         8.4700   -3.2330   -2.8860 hc        1 MOL      0.128801
     36 H16        10.1790   -2.9440   -0.2420 hx        1 MOL      0.114756
     37 H17        10.3190   -4.3010   -1.3410 hx        1 MOL      0.114756
     38 H18         7.9010   -3.6710    0.0860 hn        1 MOL      0.317645
     39 H19         8.0830   -4.6450   -1.2230 hn        1 MOL      0.317645
     40 H20         8.8560   -5.0240    0.2220 hn        1 MOL      0.317645
     41 N4          6.2720    0.5090    0.1440 n         1 MOL     -0.489554
     42 C13         5.0450    0.3000    0.9850 c3        1 MOL      0.093152
     43 C14         3.8440   -0.1460    0.1550 c         1 MOL      0.487018
     44 O6          3.7880    0.1750   -1.0260 o         1 MOL     -0.547326
     45 C15         4.9980    1.5250    1.8620 c3        1 MOL      0.031182
     46 C16         5.3780    2.8790    1.2830 c         1 MOL      0.655550
     47 O7          4.9960    3.2150    0.1300 o         1 MOL     -0.768188
     48 O8          6.0090    3.7470    1.9340 o         1 MOL     -0.768188
     49 H21         6.2280    0.9260   -0.7770 hn        1 MOL      0.247383
     50 H22         5.1780   -0.5820    1.5990 h1        1 MOL      0.040193
     51 H23         5.6760    1.2810    2.6720 hc        1 MOL      0.031091
     52 H24         4.0450    1.5450    2.4030 hc        1 MOL      0.031091
     53 N5          2.8830   -0.8910    0.6990 n         1 MOL     -0.353914
     54 C17         2.7160   -1.5250    2.0030 c3        1 MOL     -0.181256
     55 C18         3.3720   -2.8740    2.2650 c         1 MOL      0.581279
     56 O9          4.2890   -3.1430    1.5280 o         1 MOL     -0.562430
     57 H25         2.2120   -1.1570   -0.0090 hn        1 MOL      0.279281
     58 H26         1.6640   -1.5810    2.2820 h1        1 MOL      0.096523
     59 H27         3.1310   -0.8530    2.7620 h1        1 MOL      0.096523
     60 N6          2.7950   -3.6550    3.1850 n         1 MOL     -0.396480
     61 C19         3.1000   -5.1130    3.3590 c3        1 MOL      0.031400
     62 C20         2.2550   -5.9830    2.3650 c         1 MOL      0.291816
     63 O10         1.1310   -6.3720    2.6950 o         1 MOL     -0.405871
     64 C21         2.7110   -5.4850    4.8710 c3        1 MOL     -0.303206
     65 C22         2.7760   -7.0010    5.1640 c         1 MOL      0.706617
     66 O11         3.5350   -7.7130    4.4240 o         1 MOL     -0.637879
     67 O12         2.0390   -7.5160    6.0120 o         1 MOL     -0.637879
     68 H28         2.1390   -3.1420    3.7520 hn        1 MOL      0.279405
     69 H29         4.1500   -5.3000    3.1400 h1        1 MOL      0.059208
     70 H30         1.7670   -5.0420    5.1610 hc        1 MOL      0.089679
     71 H31         3.3710   -4.8840    5.5040 hc        1 MOL      0.089679
     72 N7          2.6850   -6.3830    1.1490 n         1 MOL     -0.153849
     73 C23         1.9390   -7.1310    0.1940 c3        1 MOL     -0.210746
     74 C24         1.1880   -6.3830   -0.9560 c         1 MOL      0.554653
     75 O13         0.6060   -7.0480   -1.7960 o         1 MOL     -0.545186
     76 H32         3.6010   -6.0610    0.8510 hn        1 MOL      0.186848
     77 H33         1.1360   -7.6330    0.7310 h1        1 MOL      0.121698
     78 H34         2.6580   -7.7900   -0.3130 h1        1 MOL      0.121698
     79 N8          1.2250   -5.0340   -1.0230 n         1 MOL     -0.310038
     80 C25         0.6660   -4.2310   -2.0930 c3        1 MOL      0.089576
     81 C26         0.2620   -2.8770   -1.5230 c         1 MOL      0.365603
     82 O14         0.7700   -2.5390   -0.4340 o         1 MOL     -0.464126
     83 C27         1.5950   -4.0580   -3.3070 c3        1 MOL      0.351404
     84 C28         3.0340   -3.5590   -2.9940 c3        1 MOL     -0.369258
     85 O15         1.7300   -5.2680   -4.0020 oh        1 MOL     -0.592816
     86 H35         1.8130   -4.5560   -0.3500 hn        1 MOL      0.199300
     87 H36        -0.2560   -4.6430   -2.4910 h1        1 MOL      0.041990
     88 H37         1.0540   -3.3920   -3.9740 h1        1 MOL     -0.031758
     89 H38         1.7650   -5.0730   -4.9450 ho        1 MOL      0.380368
     90 H39         3.3010   -2.7030   -3.6070 hc        1 MOL      0.088537
     91 H40         3.2380   -3.1870   -1.9850 hc        1 MOL      0.088537
     92 H41         3.7280   -4.3970   -3.1100 hc        1 MOL      0.088537
     93 N9         -0.5760   -2.1270   -2.2490 n         1 MOL     -0.403854
     94 C29        -1.0840   -0.7820   -1.7900 c3        1 MOL      0.037748
     95 C30        -2.5210   -0.8610   -1.1290 c         1 MOL      0.470782
     96 O16        -2.8000   -0.0590   -0.2170 o         1 MOL     -0.533522
     97 C31        -1.1390    0.1980   -3.0150 c3        1 MOL      0.202599
     98 C32         0.1540    0.3200   -3.9070 c3        1 MOL     -0.192095
     99 C33        -1.5000    1.6610   -2.5540 c3        1 MOL     -0.226511
    100 C34         1.4820    0.4920   -3.1420 c3        1 MOL     -0.062177
    101 H42        -0.8840   -2.4900   -3.1470 hn        1 MOL      0.296525
    102 H43        -0.4510   -0.3020   -1.0440 h1        1 MOL      0.088980
    103 H44        -1.9520   -0.1110   -3.6700 hc        1 MOL     -0.026123
    104 H45         0.0380    1.1670   -4.5850 hc        1 MOL      0.038287
    105 H46         0.1170   -0.5890   -4.4980 hc        1 MOL      0.038287
    106 H47        -0.6490    2.0770   -1.9980 hc        1 MOL      0.061573
    107 H48        -1.8450    2.3270   -3.3460 hc        1 MOL      0.061573
    108 H49        -2.3030    1.6910   -1.8260 hc        1 MOL      0.061573
    109 H50         1.7070   -0.3360   -2.4690 hc        1 MOL      0.042583
    110 H51         2.2460    0.4940   -3.9140 hc        1 MOL      0.042583
    111 H52         1.4670    1.4230   -2.5800 hc        1 MOL      0.042583
    112 N10        -3.4290   -1.6870   -1.6270 n         1 MOL     -0.455486
    113 C35        -4.6920   -2.0240   -0.8760 c3        1 MOL      0.192952
    114 C36        -5.8840   -2.2310   -1.7970 c         1 MOL      0.401290
    115 O17        -5.6270   -2.4840   -2.9660 o         1 MOL     -0.512831
    116 C37        -4.4750   -3.2670    0.0270 c3        1 MOL      0.288811
    117 C38        -3.2770   -3.2630    0.9960 c3        1 MOL     -0.229246
    118 O18        -5.6470   -3.4940    0.7670 oh        1 MOL     -0.625434
    119 H53        -3.2010   -2.3760   -2.3360 hn        1 MOL      0.239795
    120 H54        -4.9860   -1.1460   -0.3210 h1        1 MOL      0.062225
    121 H55        -4.3060   -4.1130   -0.6430 h1        1 MOL     -0.007753
    122 H56        -5.8430   -4.4210    0.6100 ho        1 MOL      0.408136
    123 H57        -3.1890   -2.3030    1.5070 hc        1 MOL      0.078590
    124 H58        -3.4110   -4.0020    1.7820 hc        1 MOL      0.078590
    125 H59        -2.2950   -3.5250    0.5840 hc        1 MOL      0.078590
    126 N11        -7.1180   -2.1520   -1.3440 n         1 MOL     -0.386643
    127 C39        -8.3670   -2.3640   -2.0480 c3        1 MOL      0.019758
    128 C40        -9.2450   -1.1370   -1.9840 c         1 MOL      0.635016
    129 O19        -9.9860   -0.8300   -2.9000 o         1 MOL     -0.573669
    130 C41        -9.1050   -3.6660   -1.5380 c3        1 MOL      0.331636
    131 C42        -9.7570   -3.4430   -0.1910 c3        1 MOL     -0.139846
    132 O20        -8.2530   -4.8580   -1.4650 oh        1 MOL     -0.611274
    133 H60        -7.1380   -1.8430   -0.3740 hn        1 MOL      0.290916
    134 H61        -8.2260   -2.5300   -3.1210 h1        1 MOL      0.065953
    135 H62        -9.9180   -3.8120   -2.2440 h1        1 MOL     -0.028066
    136 H63        -8.2050   -5.2040   -2.3630 ho        1 MOL      0.395983
    137 H64       -10.5360   -2.6930   -0.2440 hc        1 MOL      0.042773
    138 H65       -10.2620   -4.3720    0.1020 hc        1 MOL      0.042773
    139 H66        -9.0320   -3.2600    0.5940 hc        1 MOL      0.042773
    140 N12        -9.1290   -0.3600   -0.9190 n         1 MOL     -0.465722
    141 C43        -9.9780    0.8270   -0.6290 c3        1 MOL     -0.014951
    142 C44        -9.2390    1.6640    0.3700 c         1 MOL      0.578119
    143 O21        -8.6580    1.2110    1.3380 o         1 MOL     -0.497794
    144 C45       -11.4110    0.4450   -0.1320 c3        1 MOL     -0.054129
    145 C46       -12.2360    1.6310    0.3870 c3        1 MOL      0.038297
    146 C47       -13.6330    1.3600    0.9270 c3        1 MOL      0.061020
    147 C48       -14.4980    2.4790    1.4850 c3        1 MOL     -0.148324
    148 N13       -13.8850    3.2740    2.5660 n4        1 MOL     -0.192276
    149 H67        -8.5550   -0.7240   -0.1710 hn        1 MOL      0.210716
    150 H68       -10.1570    1.4340   -1.5130 h1        1 MOL      0.115578
    151 H69       -11.3850   -0.3580    0.6130 hc        1 MOL      0.041632
    152 H70       -11.9720   -0.0330   -0.9360 hc        1 MOL      0.041632
    153 H71       -12.4500    2.3620   -0.4050 hc        1 MOL     -0.007570
    154 H72       -11.6650    2.0060    1.2340 hc        1 MOL     -0.007570
    155 H73       -13.4220    0.6900    1.7600 hc        1 MOL      0.019657
    156 H74       -14.2320    0.8130    0.1950 hc        1 MOL      0.019657
    157 H75       -15.4660    2.1150    1.8420 hx        1 MOL      0.128478
    158 H76       -14.6210    3.1100    0.6060 hx        1 MOL      0.128478
    159 H77       -14.3970    4.1130    2.7820 hn        1 MOL      0.259032
    160 H78       -13.7490    2.7270    3.4080 hn        1 MOL      0.259032
    161 H79       -12.9770    3.6110    2.2460 hn        1 MOL      0.259032
    162 N14        -9.1410    2.9610    0.0910 n         1 MOL     -0.577273
    163 C49        -8.5900    3.9540    1.0780 c3        1 MOL      0.318829
    164 C50        -7.0560    3.8030    1.3550 c         1 MOL      0.416525
    165 O22        -6.6980    3.6530    2.4710 o         1 MOL     -0.519188
    166 C51        -9.0530    5.3080    0.7120 c3        1 MOL     -0.098534
    167 C52        -8.7040    6.4520    1.6350 c3        1 MOL     -0.332675
    168 C53        -9.5630    7.6940    1.3700 c         1 MOL      0.818473
    169 O23       -10.7590    7.7430    1.7470 o         1 MOL     -0.701720
    170 O24        -9.0860    8.7150    0.8480 o         1 MOL     -0.701720
    171 H80        -9.6770    3.3130   -0.6870 hn        1 MOL      0.273352
    172 H81        -9.0540    3.7070    2.0390 h1        1 MOL      0.004629
    173 H82       -10.1330    5.1700    0.6930 hc        1 MOL      0.011162
    174 H83        -8.8030    5.5750   -0.3160 hc        1 MOL      0.011162
    175 H84        -7.6830    6.8190    1.7180 hc        1 MOL      0.079643
    176 H85        -8.9180    6.1680    2.6750 hc        1 MOL      0.079643
    177 N15        -6.1550    3.8960    0.3700 n         1 MOL     -0.363159
    178 C54        -6.3400    4.3760   -1.0080 c3        1 MOL     -0.029720
    179 H86        -5.7340    3.7740   -1.6860 h1        1 MOL      0.059456
    180 H87        -7.3900    4.2890   -1.2860 h1        1 MOL      0.059456
    181 H88        -6.0310    5.4200   -1.0740 h1        1 MOL      0.059456
    182 H89        -5.2110    3.6670    0.6480 hn        1 MOL      0.297141
    183 Ca1         6.1790    5.5400   -0.0050 Ca        1 MOL      1.601978
    184 O25         6.1560    5.3250   -2.7120 oh        1 MOL     -0.736424
    185 H90         6.9040    5.5530   -3.2710 ho        1 MOL      0.366719
    186 H91         5.4880    5.9640   -2.9440 ho        1 MOL      0.366719
@<TRIPOS>BOND
     1    1    2 1   
     2    1    4 1   
     3    1    5 1   
     4    1    6 1   
     5    2    3 2   
     6    2    7 1   
     7    7    8 1   
     8    7   15 1   
     9    8    9 1   
    10    8   11 1   
    11    8   16 1   
    12    9   10 2   
    13    9   19 1   
    14   11   12 1   
    15   11   17 1   
    16   11   18 1   
    17   12   13 1   
    18   12   14 1   
    19   19   20 1   
    20   19   28 1   
    21   20   21 1   
    22   20   23 1   
    23   20   29 1   
    24   21   22 2   
    25   21   41 1   
    26   23   24 1   
    27   23   30 1   
    28   23   31 1   
    29   24   25 1   
    30   24   32 1   
    31   24   33 1   
    32   25   26 1   
    33   25   34 1   
    34   25   35 1   
    35   26   27 1   
    36   26   36 1   
    37   26   37 1   
    38   27   38 1   
    39   27   39 1   
    40   27   40 1   
    41   41   42 1   
    42   41   49 1   
    43   42   43 1   
    44   42   45 1   
    45   42   50 1   
    46   43   44 2   
    47   43   53 1   
    48   45   46 1   
    49   45   51 1   
    50   45   52 1   
    51   46   47 1   
    52   46   48 1   
    53   53   54 1   
    54   53   57 1   
    55   54   55 1   
    56   54   58 1   
    57   54   59 1   
    58   55   56 2   
    59   55   60 1   
    60   60   61 1   
    61   60   68 1   
    62   61   62 1   
    63   61   64 1   
    64   61   69 1   
    65   62   63 2   
    66   62   72 1   
    67   64   65 1   
    68   64   70 1   
    69   64   71 1   
    70   65   66 1   
    71   65   67 1   
    72   72   73 1   
    73   72   76 1   
    74   73   74 1   
    75   73   77 1   
    76   73   78 1   
    77   74   75 2   
    78   74   79 1   
    79   79   80 1   
    80   79   86 1   
    81   80   81 1   
    82   80   83 1   
    83   80   87 1   
    84   81   82 2   
    85   81   93 1   
    86   83   84 1   
    87   83   85 1   
    88   83   88 1   
    89   84   90 1   
    90   84   91 1   
    91   84   92 1   
    92   85   89 1   
    93   93   94 1   
    94   93  101 1   
    95   94   95 1   
    96   94   97 1   
    97   94  102 1   
    98   95   96 2   
    99   95  112 1   
   100   97   98 1   
   101   97   99 1   
   102   97  103 1   
   103   98  100 1   
   104   98  104 1   
   105   98  105 1   
   106   99  106 1   
   107   99  107 1   
   108   99  108 1   
   109  100  109 1   
   110  100  110 1   
   111  100  111 1   
   112  112  113 1   
   113  112  119 1   
   114  113  114 1   
   115  113  116 1   
   116  113  120 1   
   117  114  115 2   
   118  114  126 1   
   119  116  117 1   
   120  116  118 1   
   121  116  121 1   
   122  117  123 1   
   123  117  124 1   
   124  117  125 1   
   125  118  122 1   
   126  126  127 1   
   127  126  133 1   
   128  127  128 1   
   129  127  130 1   
   130  127  134 1   
   131  128  129 2   
   132  128  140 1   
   133  130  131 1   
   134  130  132 1   
   135  130  135 1   
   136  131  137 1   
   137  131  138 1   
   138  131  139 1   
   139  132  136 1   
   140  140  141 1   
   141  140  149 1   
   142  141  142 1   
   143  141  144 1   
   144  141  150 1   
   145  142  143 2   
   146  142  162 1   
   147  144  145 1   
   148  144  151 1   
   149  144  152 1   
   150  145  146 1   
   151  145  153 1   
   152  145  154 1   
   153  146  147 1   
   154  146  155 1   
   155  146  156 1   
   156  147  148 1   
   157  147  157 1   
   158  147  158 1   
   159  148  159 1   
   160  148  160 1   
   161  148  161 1   
   162  162  163 1   
   163  162  171 1   
   164  163  164 1   
   165  163  166 1   
   166  163  172 1   
   167  164  165 2   
   168  164  177 1   
   169  166  167 1   
   170  166  173 1   
   171  166  174 1   
   172  167  168 1   
   173  167  175 1   
   174  167  176 1   
   175  168  169 1   
   176  168  170 1   
   177  177  178 1   
   178  177  182 1   
   179  178  179 1   
   180  178  180 1   
   181  178  181 1   
   182  184  185 1   
   183  184  186 1   
@<TRIPOS>SUBSTRUCTURE
     1 MOL         1 TEMP              0 ****  ****    0 ROOT
