@<TRIPOS>MOLECULE
MOL
  178   175     1     0     0
SMALL
resp


@<TRIPOS>ATOM
      1 C1          1.8620   -1.1340    5.1610 c3        1 MOL     -0.219869
      2 C2          2.9780   -0.8410    4.1220 c         1 MOL      0.649967
      3 O1          2.7810   -0.0940    3.1710 o         1 MOL     -0.562456
      4 H1          0.9080   -1.2450    4.6460 hc        1 MOL      0.044986
      5 H2          2.0950   -2.0560    5.6950 hc        1 MOL      0.044986
      6 H3          1.7980   -0.3090    5.8700 hc        1 MOL      0.044986
      7 N1          4.1560   -1.3990    4.2890 n         1 MOL     -0.563722
      8 C3          5.4290   -0.9850    3.6490 c3        1 MOL      0.361306
      9 C4          5.7400   -1.9090    2.4540 c         1 MOL      0.340097
     10 O2          6.5980   -1.5500    1.6350 o         1 MOL     -0.480508
     11 C5          6.5130   -1.0870    4.7680 c3        1 MOL     -0.296207
     12 C6          7.7440   -0.1380    4.5690 c         1 MOL      0.757863
     13 O3          7.5790    0.9330    3.9980 o         1 MOL     -0.731828
     14 O4          8.8590   -0.4520    5.0670 o         1 MOL     -0.731828
     15 H4          4.2780   -2.0280    5.0660 hn        1 MOL      0.275711
     16 H5          5.3060    0.0380    3.3080 h1        1 MOL      0.047957
     17 H6          6.6550   -2.1470    4.9780 hc        1 MOL      0.013498
     18 H7          6.0850   -0.7550    5.7190 hc        1 MOL      0.013498
     19 N2          5.0860   -3.0750    2.3110 n         1 MOL     -0.333738
     20 C7          5.0370   -3.8530    1.0610 c3        1 MOL      0.042304
     21 C8          4.8540   -2.9840   -0.2700 c         1 MOL      0.743925
     22 O5          3.6870   -2.7300   -0.6130 o         1 MOL     -0.721224
     23 C9          6.2580   -4.7890    1.0090 c3        1 MOL     -0.277244
     24 H8          4.4210   -3.2750    3.0450 hn        1 MOL      0.239326
     25 H9          4.1170   -4.4350    1.1830 h1        1 MOL      0.097608
     26 H10         6.2000   -5.4680    0.1640 hc        1 MOL      0.074698
     27 H11         7.2330   -4.3030    1.0040 hc        1 MOL      0.074698
     28 H12         6.1840   -5.4100    1.9050 hc        1 MOL      0.074698
     29 N3          5.9160   -2.4870   -0.9800 n         1 MOL     -0.469038
     30 C10         5.9550   -1.9100   -2.2970 c3        1 MOL      0.062280
     31 C11         6.2210   -0.3600   -2.2370 c         1 MOL      0.505544
     32 O6          6.3270    0.2620   -3.2750 o         1 MOL     -0.560740
     33 C12         6.9270   -2.5700   -3.2020 c3        1 MOL     -0.211152
     34 C13         6.7730   -4.0060   -3.2910 c         1 MOL      0.861936
     35 O7          5.9200   -4.4760   -4.0210 o         1 MOL     -0.772351
     36 O8          7.5860   -4.6650   -2.6150 o         1 MOL     -0.772351
     37 H13         6.8100   -2.6810   -0.5390 hn        1 MOL      0.303819
     38 H14         5.0070   -1.9050   -2.8230 h1        1 MOL      0.043641
     39 H15         7.9020   -2.2620   -2.8310 hc        1 MOL      0.016722
     40 H16         6.7840   -2.2000   -4.2220 hc        1 MOL      0.016722
     41 N4          6.2170    0.2070   -1.0240 n         1 MOL     -0.133976
     42 C14         6.4120    1.6460   -0.9060 c3        1 MOL     -0.140041
     43 C15         5.3300    2.4790   -1.6170 c         1 MOL      0.637624
     44 O9          5.6380    3.5230   -2.1530 o         1 MOL     -0.553947
     45 H17         6.3570   -0.4320   -0.2540 hn        1 MOL      0.145957
     46 H18         7.4250    1.9230   -1.1770 h1        1 MOL      0.082842
     47 H19         6.2240    1.7670    0.1620 h1        1 MOL      0.082842
     48 N5          4.0500    1.9510   -1.4990 n         1 MOL     -0.429698
     49 C16         2.8730    2.4800   -2.2260 c3        1 MOL     -0.097690
     50 C17         2.4670    3.8410   -1.7030 c         1 MOL      0.673808
     51 O10         2.2790    3.9970   -0.4940 o         1 MOL     -0.535122
     52 C18         1.7510    1.3620   -2.2440 c3        1 MOL     -0.289969
     53 C19         2.2730    0.1710   -3.0230 c         1 MOL      0.611964
     54 N6          2.6450    0.2540   -4.2930 n         1 MOL     -0.689361
     55 O11         2.3350   -0.9870   -2.5770 o         1 MOL     -0.540053
     56 H20         3.8220    1.0740   -1.0430 hn        1 MOL      0.267841
     57 H21         3.2090    2.6380   -3.2470 h1        1 MOL      0.048714
     58 H22         0.9050    1.8230   -2.7590 hc        1 MOL      0.158885
     59 H23         1.3440    1.1010   -1.2730 hc        1 MOL      0.158885
     60 H24         2.6790    1.1450   -4.7610 hn        1 MOL      0.335609
     61 H25         2.9450   -0.5990   -4.7440 hn        1 MOL      0.335609
     62 N7          2.4240    4.8570   -2.6010 n         1 MOL     -0.416451
     63 C20         2.2450    6.2370   -2.2160 c3        1 MOL     -0.198058
     64 C21         0.7910    6.7040   -2.0280 c         1 MOL      0.565955
     65 O12        -0.0870    6.3380   -2.8250 o         1 MOL     -0.504247
     66 H26         2.3610    4.6890   -3.5940 hn        1 MOL      0.285831
     67 H27         2.7450    6.8860   -2.9300 h1        1 MOL      0.126122
     68 H28         2.8300    6.3090   -1.2930 h1        1 MOL      0.126122
     69 N8          0.4470    7.4360   -0.9290 n         1 MOL     -0.503263
     70 C22        -0.9140    7.9880   -0.6250 c3        1 MOL     -0.276973
     71 C23        -2.0040    7.0110   -0.1840 c         1 MOL      0.437465
     72 O13        -3.2210    7.3810   -0.0580 o         1 MOL     -0.566219
     73 C24        -0.8800    9.2850    0.1990 c3        1 MOL      0.613931
     74 C25        -0.6610    9.1660    1.7040 c3        1 MOL     -0.340674
     75 O14         0.1140   10.0240   -0.2490 oh        1 MOL     -0.631768
     76 H29         1.1790    7.6730   -0.2740 hn        1 MOL      0.276934
     77 H30        -1.2210    8.3500   -1.6130 h1        1 MOL      0.169137
     78 H31        -1.7990    9.8180   -0.0160 h1        1 MOL     -0.009168
     79 H32         0.9040    9.5070   -0.0640 ho        1 MOL      0.364390
     80 H33        -0.3820   10.1780    1.9950 hc        1 MOL      0.070499
     81 H34        -1.5690    8.9550    2.2730 hc        1 MOL      0.070499
     82 H35         0.1820    8.5490    2.0200 hc        1 MOL      0.070499
     83 N9         -1.6030    5.7690    0.0210 n         1 MOL     -0.110415
     84 C26        -2.2960    4.6390    0.6910 c3        1 MOL     -0.057765
     85 C27        -2.0470    3.2600   -0.0590 c         1 MOL      0.381234
     86 O15        -1.1110    3.1600   -0.9050 o         1 MOL     -0.442316
     87 C28        -2.0940    4.5530    2.2830 c3        1 MOL      0.085698
     88 C29        -0.6050    4.0820    2.5990 c3        1 MOL     -0.187715
     89 C30        -2.4340    5.7910    3.0870 c3        1 MOL     -0.121862
     90 C31        -0.4160    3.5100    3.9820 c3        1 MOL     -0.271124
     91 H36        -0.6470    5.5760   -0.2350 hn        1 MOL      0.176937
     92 H37        -3.3700    4.8100    0.5910 h1        1 MOL      0.069527
     93 H38        -2.8170    3.8050    2.5930 hc        1 MOL      0.000262
     94 H39         0.0740    4.9110    2.3760 hc        1 MOL      0.130050
     95 H40        -0.3930    3.2370    1.9460 hc        1 MOL      0.130050
     96 H41        -1.9150    6.6770    2.7210 hc        1 MOL      0.029224
     97 H42        -3.4890    6.0030    2.9050 hc        1 MOL      0.029224
     98 H43        -2.2350    5.6030    4.1380 hc        1 MOL      0.029224
     99 H44        -1.1410    2.7520    4.2740 hc        1 MOL      0.084814
    100 H45         0.5620    3.0190    4.0170 hc        1 MOL      0.084814
    101 H46        -0.2600    4.3020    4.7080 hc        1 MOL      0.084814
    102 N10        -2.7360    2.1760    0.3430 n         1 MOL     -0.442879
    103 C32        -2.4520    0.8370   -0.1340 c3        1 MOL      0.064216
    104 C33        -3.6940   -0.0850   -0.3870 c         1 MOL      0.504918
    105 O16        -3.5450   -1.3180   -0.5860 o         1 MOL     -0.493142
    106 C34        -1.3900    0.1940    0.6570 c3        1 MOL     -0.325717
    107 C35        -0.4680   -0.7310   -0.1290 c         1 MOL      0.633803
    108 O17         0.3010   -1.5820    0.4640 o         1 MOL     -0.725943
    109 O18        -0.3590   -0.7730   -1.3590 o         1 MOL     -0.725943
    110 H47        -3.5140    2.3550    0.9680 hn        1 MOL      0.289522
    111 H48        -2.1880    0.9940   -1.1810 h1        1 MOL      0.108456
    112 H49        -1.6950   -0.3630    1.5420 hc        1 MOL      0.158558
    113 H50        -0.6400    0.8890    1.0300 hc        1 MOL      0.158558
    114 N11        -4.9130    0.4300   -0.4680 n         1 MOL     -0.352674
    115 C36        -6.0990   -0.2940   -0.9070 c3        1 MOL      0.197268
    116 C37        -6.4410   -1.3950    0.1250 c         1 MOL      0.156452
    117 O19        -6.3780   -1.1120    1.3530 o         1 MOL     -0.424846
    118 C38        -7.2370    0.7030   -1.1510 c3        1 MOL     -0.168578
    119 C39        -8.5140    0.0360   -1.5310 ca        1 MOL      0.053191
    120 C40        -8.8220   -0.2290   -2.9160 ca        1 MOL     -0.153792
    121 C41        -9.3970   -0.3570   -0.5180 ca        1 MOL     -0.153792
    122 C42        -9.9040   -0.9450   -3.3010 ca        1 MOL     -0.093237
    123 C43       -10.5540   -1.0850   -0.9460 ca        1 MOL     -0.093237
    124 C44       -10.8180   -1.3430   -2.3160 ca        1 MOL     -0.135696
    125 H51        -4.9570    1.4260   -0.2960 hn        1 MOL      0.196549
    126 H52        -5.7770   -0.7560   -1.8320 h1        1 MOL      0.048158
    127 H53        -6.9040    1.2460   -2.0420 hc        1 MOL      0.085748
    128 H54        -7.3820    1.4540   -0.3710 hc        1 MOL      0.085748
    129 H55        -8.1250    0.0290   -3.6960 ha        1 MOL      0.129652
    130 H56        -9.1110   -0.1740    0.5120 ha        1 MOL      0.129652
    131 H57       -10.2210   -1.1550   -4.3130 ha        1 MOL      0.107309
    132 H58       -11.3100   -1.3450   -0.2270 ha        1 MOL      0.107309
    133 H59       -11.6670   -1.9540   -2.5650 ha        1 MOL      0.109224
    134 N12        -6.7110   -2.6750   -0.2810 n         1 MOL     -0.043968
    135 C45        -7.0230   -3.7280    0.6860 c3        1 MOL      0.136434
    136 C46        -5.9340   -3.9370    1.8530 c         1 MOL      0.134574
    137 O20        -6.2300   -4.5790    2.8060 o         1 MOL     -0.493489
    138 C47        -7.1260   -4.9750   -0.1360 c3        1 MOL     -0.005199
    139 C48        -7.7370   -4.5220   -1.4420 c3        1 MOL      0.034243
    140 C49        -7.0580   -3.1500   -1.6130 c3        1 MOL     -0.012437
    141 H60        -7.9960   -3.4840    1.0990 h1        1 MOL      0.052586
    142 H61        -6.1570   -5.4340   -0.2780 hc        1 MOL      0.013832
    143 H62        -7.8440   -5.6810    0.2880 hc        1 MOL      0.013832
    144 H63        -7.5770   -5.1770   -2.3000 hc        1 MOL      0.000232
    145 H64        -8.7990   -4.3450   -1.2590 hc        1 MOL      0.000232
    146 H65        -6.1840   -3.2610   -2.2510 h1        1 MOL      0.026883
    147 H66        -7.7180   -2.4210   -2.0790 h1        1 MOL      0.026883
    148 N13        -4.7520   -3.3490    1.7570 n         1 MOL      0.256179
    149 C50        -3.6240   -3.5330    2.6410 c3        1 MOL     -0.248786
    150 C51        -3.5520   -2.4360    3.6650 c         1 MOL      0.422313
    151 O21        -2.8440   -2.5550    4.6710 o         1 MOL     -0.526741
    152 C52        -2.2980   -3.5040    1.9010 c3        1 MOL      0.073457
    153 C53        -2.2450   -4.7710    1.0170 c3        1 MOL     -0.099231
    154 C54        -1.0810   -4.5590   -0.0280 c         1 MOL      0.640400
    155 O22        -1.2050   -4.1730   -1.2320 o         1 MOL     -0.744233
    156 O23         0.0530   -4.7330    0.3890 o         1 MOL     -0.744233
    157 H67        -4.6060   -2.8620    0.8830 hn        1 MOL      0.045654
    158 H68        -3.6680   -4.3720    3.3340 h1        1 MOL      0.122446
    159 H69        -1.4010   -3.5810    2.5190 hc        1 MOL      0.069844
    160 H70        -2.2180   -2.5960    1.3040 hc        1 MOL      0.069844
    161 H71        -3.1990   -4.9090    0.5140 hc        1 MOL      0.004354
    162 H72        -2.0030   -5.6650    1.5840 hc        1 MOL      0.004354
    163 N14        -4.3120   -1.2850    3.3760 n         1 MOL     -0.118251
    164 C55        -4.4710   -0.1520    4.2770 c3        1 MOL     -0.254134
    165 H73        -5.4390   -0.2170    4.7730 h1        1 MOL      0.093093
    166 H74        -3.6790   -0.1690    5.0260 h1        1 MOL      0.093093
    167 H75        -4.4160    0.7760    3.7080 h1        1 MOL      0.093093
    168 H76        -4.9140   -1.2180    2.5720 hn        1 MOL      0.095858
    169 Ca1         1.0960   -3.1130   -1.6380 Ca        1 MOL      1.781300
    170 O24         0.1640   -3.5680   -4.2100 oh        1 MOL     -0.856105
    171 H77         0.8120   -3.9790   -4.7720 ho        1 MOL      0.414118
    172 H78        -0.6440   -4.0640   -4.3660 ho        1 MOL      0.414118
    173 O25         2.1780   -5.6680   -1.7700 oh        1 MOL     -0.856105
    174 H79         1.5920   -6.4270   -1.8020 ho        1 MOL      0.414118
    175 H80         3.0540   -6.0400   -1.6980 ho        1 MOL      0.414118
    176 O26         3.1690   -3.5640   -3.3030 oh        1 MOL     -0.856105
    177 H81         3.3460   -2.8020   -3.8400 ho        1 MOL      0.414118
    178 H82         3.9360   -4.1220   -3.4040 ho        1 MOL      0.414118
@<TRIPOS>BOND
     1    1    2 1   
     2    1    4 1   
     3    1    5 1   
     4    1    6 1   
     5    2    3 2   
     6    2    7 1   
     7    7    8 1   
     8    7   15 1   
     9    8    9 1   
    10    8   11 1   
    11    8   16 1   
    12    9   10 2   
    13    9   19 1   
    14   11   12 1   
    15   11   17 1   
    16   11   18 1   
    17   12   13 1   
    18   12   14 1   
    19   19   20 1   
    20   19   24 1   
    21   20   21 1   
    22   20   23 1   
    23   20   25 1   
    24   21   22 2   
    25   21   29 1   
    26   23   26 1   
    27   23   27 1   
    28   23   28 1   
    29   29   30 1   
    30   29   37 1   
    31   30   31 1   
    32   30   33 1   
    33   30   38 1   
    34   31   32 2   
    35   31   41 1   
    36   33   34 1   
    37   33   39 1   
    38   33   40 1   
    39   34   35 1   
    40   34   36 1   
    41   41   42 1   
    42   41   45 1   
    43   42   43 1   
    44   42   46 1   
    45   42   47 1   
    46   43   44 2   
    47   43   48 1   
    48   48   49 1   
    49   48   56 1   
    50   49   50 1   
    51   49   52 1   
    52   49   57 1   
    53   50   51 2   
    54   50   62 1   
    55   52   53 1   
    56   52   58 1   
    57   52   59 1   
    58   53   54 1   
    59   53   55 2   
    60   54   60 1   
    61   54   61 1   
    62   62   63 1   
    63   62   66 1   
    64   63   64 1   
    65   63   67 1   
    66   63   68 1   
    67   64   65 2   
    68   64   69 1   
    69   69   70 1   
    70   69   76 1   
    71   70   71 1   
    72   70   73 1   
    73   70   77 1   
    74   71   72 2   
    75   71   83 1   
    76   73   74 1   
    77   73   75 1   
    78   73   78 1   
    79   74   80 1   
    80   74   81 1   
    81   74   82 1   
    82   75   79 1   
    83   83   84 1   
    84   83   91 1   
    85   84   85 1   
    86   84   87 1   
    87   84   92 1   
    88   85   86 2   
    89   85  102 1   
    90   87   88 1   
    91   87   89 1   
    92   87   93 1   
    93   88   90 1   
    94   88   94 1   
    95   88   95 1   
    96   89   96 1   
    97   89   97 1   
    98   89   98 1   
    99   90   99 1   
   100   90  100 1   
   101   90  101 1   
   102  102  103 1   
   103  102  110 1   
   104  103  104 1   
   105  103  106 1   
   106  103  111 1   
   107  104  105 2   
   108  104  114 1   
   109  106  107 1   
   110  106  112 1   
   111  106  113 1   
   112  107  108 1   
   113  107  109 1   
   114  114  115 1   
   115  114  125 1   
   116  115  116 1   
   117  115  118 1   
   118  115  126 1   
   119  116  117 2   
   120  116  134 1   
   121  118  119 1   
   122  118  127 1   
   123  118  128 1   
   124  119  120 ar  
   125  119  121 ar  
   126  120  122 ar  
   127  120  129 1   
   128  121  123 ar  
   129  121  130 1   
   130  122  124 ar  
   131  122  131 1   
   132  123  124 ar  
   133  123  132 1   
   134  124  133 1   
   135  134  135 1   
   136  134  140 1   
   137  135  136 1   
   138  135  138 1   
   139  135  141 1   
   140  136  137 2   
   141  136  148 1   
   142  138  139 1   
   143  138  142 1   
   144  138  143 1   
   145  139  140 1   
   146  139  144 1   
   147  139  145 1   
   148  140  146 1   
   149  140  147 1   
   150  148  149 1   
   151  148  157 1   
   152  149  150 1   
   153  149  152 1   
   154  149  158 1   
   155  150  151 2   
   156  150  163 1   
   157  152  153 1   
   158  152  159 1   
   159  152  160 1   
   160  153  154 1   
   161  153  161 1   
   162  153  162 1   
   163  154  155 1   
   164  154  156 1   
   165  163  164 1   
   166  163  168 1   
   167  164  165 1   
   168  164  166 1   
   169  164  167 1   
   170  170  171 1   
   171  170  172 1   
   172  173  174 1   
   173  173  175 1   
   174  176  177 1   
   175  176  178 1   
@<TRIPOS>SUBSTRUCTURE
     1 MOL         1 TEMP              0 ****  ****    0 ROOT
