@<TRIPOS>MOLECULE
MOL
  179   176     1     0     0
SMALL
resp


@<TRIPOS>ATOM
      1 C1         -3.2930   -0.9500    6.4700 c3        1 MOL     -0.214407
      2 C2         -3.0850   -1.2290    4.9690 c         1 MOL      0.735741
      3 O1         -3.9150   -1.1130    4.0850 o         1 MOL     -0.572534
      4 H1         -3.4690   -1.8900    6.9930 hc        1 MOL      0.061756
      5 H2         -2.4030   -0.4700    6.8780 hc        1 MOL      0.061756
      6 H3         -4.1540   -0.2950    6.6030 hc        1 MOL      0.061756
      7 N1         -1.8400   -1.7220    4.6350 n         1 MOL     -0.700013
      8 C3         -1.3130   -2.0340    3.3130 c3        1 MOL      0.031924
      9 C4         -1.9840   -3.2360    2.6510 c         1 MOL      0.855700
     10 O2         -2.0290   -4.3100    3.2750 o         1 MOL     -0.609401
     11 C5          0.2070   -2.1340    3.4130 c3        1 MOL     -0.033409
     12 C6          0.8340   -2.0730    2.0160 c         1 MOL      0.765912
     13 O3          2.0410   -1.7580    1.9470 o         1 MOL     -0.744929
     14 O4          0.2400   -2.3540    0.9850 o         1 MOL     -0.744929
     15 H4         -1.1870   -1.7450    5.4060 hn        1 MOL      0.345103
     16 H5         -1.6050   -1.1690    2.7130 h1        1 MOL     -0.013367
     17 H6          0.3150   -3.1400    3.8170 hc        1 MOL     -0.001987
     18 H7          0.5420   -1.3230    4.0660 hc        1 MOL     -0.001987
     19 N2         -2.4140   -3.1820    1.3940 n         1 MOL     -0.668362
     20 C7         -3.2160   -4.2270    0.6460 c3        1 MOL      0.055030
     21 C8         -2.3320   -5.1930   -0.1780 c         1 MOL      0.509973
     22 O5         -2.8120   -6.3270   -0.3690 o         1 MOL     -0.567930
     23 C9         -4.2520   -3.4200   -0.1520 c3        1 MOL      0.016964
     24 C10        -5.3280   -4.4370   -0.6890 c3        1 MOL     -0.085414
     25 C11        -6.4530   -3.8580   -1.5500 c3        1 MOL      0.068752
     26 C12        -7.3460   -4.8540   -2.2790 c3        1 MOL      0.091059
     27 N3         -8.1660   -4.1020   -3.1890 n4        1 MOL     -0.438811
     28 H8         -2.2490   -2.3200    0.8910 hn        1 MOL      0.352760
     29 H9         -3.7180   -4.8520    1.3860 h1        1 MOL      0.108865
     30 H10        -3.7960   -2.8850   -0.9880 hc        1 MOL      0.038303
     31 H11        -4.7210   -2.6540    0.4660 hc        1 MOL      0.038303
     32 H12        -5.6770   -5.0620    0.1360 hc        1 MOL      0.031406
     33 H13        -4.7120   -5.0690   -1.3240 hc        1 MOL      0.031406
     34 H14        -6.0710   -3.2090   -2.3440 hc        1 MOL      0.002045
     35 H15        -7.0530   -3.2120   -0.9210 hc        1 MOL      0.002045
     36 H16        -7.9470   -5.3760   -1.5410 hx        1 MOL      0.062697
     37 H17        -6.7660   -5.6380   -2.7690 hx        1 MOL      0.062697
     38 H18        -8.7250   -4.8530   -3.5650 hn        1 MOL      0.353009
     39 H19        -8.8860   -3.5400   -2.7510 hn        1 MOL      0.353009
     40 H20        -7.6380   -3.6470   -3.9180 hn        1 MOL      0.353009
     41 N4         -1.1740   -4.6990   -0.5700 n         1 MOL     -0.309450
     42 C13        -0.2130   -5.3300   -1.4450 c3        1 MOL      0.121178
     43 C14         1.1530   -5.6680   -0.7270 c         1 MOL      0.383989
     44 O6          2.0100   -6.3820   -1.2220 o         1 MOL     -0.515099
     45 C15         0.1240   -4.3420   -2.6040 c3        1 MOL     -0.220598
     46 C16         0.6650   -2.9850   -2.1640 c         1 MOL      0.683635
     47 O7          1.8140   -2.7900   -1.7890 o         1 MOL     -0.684705
     48 O8         -0.1700   -2.0360   -2.1020 o         1 MOL     -0.684705
     49 H21        -0.9920   -3.7900   -0.1590 hn        1 MOL      0.175993
     50 H22        -0.6450   -6.2430   -1.8650 h1        1 MOL      0.088025
     51 H23        -0.8160   -4.1620   -3.1230 hc        1 MOL      0.055229
     52 H24         0.8020   -4.8240   -3.3070 hc        1 MOL      0.055229
     53 N5          1.3860   -5.1600    0.4830 n         1 MOL     -0.178346
     54 C17         2.6470   -5.3460    1.1920 c3        1 MOL     -0.225100
     55 C18         3.9330   -4.6700    0.7190 c         1 MOL      0.715683
     56 O9          4.9190   -4.8060    1.3710 o         1 MOL     -0.612865
     57 H25         0.7130   -4.5200    0.8720 hn        1 MOL      0.183645
     58 H26         2.8720   -6.4070    1.2890 h1        1 MOL      0.110546
     59 H27         2.6110   -4.9900    2.2230 h1        1 MOL      0.110546
     60 N6          3.8350   -3.9440   -0.3830 n         1 MOL     -0.317577
     61 C19         4.9120   -3.5390   -1.3330 c3        1 MOL      0.021005
     62 C20         5.0200   -2.0100   -1.4180 c         1 MOL      0.572129
     63 O10         4.0910   -1.2580   -1.1860 o         1 MOL     -0.596001
     64 C21         4.7240   -4.3250   -2.6560 c3        1 MOL     -0.165154
     65 C22         4.6210   -3.4490   -3.9360 c         1 MOL      0.578883
     66 N7          3.4960   -2.8120   -4.1600 n         1 MOL     -0.685034
     67 O11         5.5870   -3.3430   -4.6800 o         1 MOL     -0.581843
     68 H28         2.9220   -3.7520   -0.7660 hn        1 MOL      0.136420
     69 H29         5.8210   -3.9970   -0.9230 h1        1 MOL      0.079789
     70 H30         3.9180   -5.0460   -2.5570 hc        1 MOL      0.074757
     71 H31         5.6500   -4.8950   -2.7190 hc        1 MOL      0.074757
     72 H32         2.7990   -2.7840   -3.4340 hn        1 MOL      0.337873
     73 H33         3.3340   -2.1780   -4.9350 hn        1 MOL      0.337873
     74 N8          6.2380   -1.5360   -1.6300 n         1 MOL     -0.448044
     75 C23         6.5380   -0.1620   -1.8540 c3        1 MOL      0.057891
     76 C24         6.2240    0.6330   -0.5820 c         1 MOL      0.440592
     77 O12         6.4930    0.2650    0.5750 o         1 MOL     -0.476914
     78 H34         7.0220   -2.1520   -1.7640 hn        1 MOL      0.305355
     79 H35         6.0950    0.2970   -2.7320 h1        1 MOL      0.062184
     80 H36         7.6080   -0.0080   -1.9950 h1        1 MOL      0.062184
     81 N9          5.5770    1.7860   -0.7950 n         1 MOL     -0.457506
     82 C25         4.9450    2.6050    0.2750 c3        1 MOL      0.134530
     83 C26         3.7880    1.8920    0.9790 c         1 MOL      0.311327
     84 O13         3.4940    0.7710    0.6660 o         1 MOL     -0.297698
     85 C27         4.4030    3.8260   -0.5270 c3        1 MOL     -0.062486
     86 C28         5.5340    4.7020   -1.1430 ca        1 MOL      0.011440
     87 C29         5.7370    4.6050   -2.5540 ca        1 MOL     -0.141350
     88 C30         6.2720    5.6380   -0.4000 ca        1 MOL     -0.141350
     89 C31         6.6410    5.4460   -3.2630 ca        1 MOL     -0.298920
     90 C32         7.2520    6.4320   -1.0770 ca        1 MOL     -0.298920
     91 C33         7.4680    6.2680   -2.5050 ca        1 MOL      0.377355
     92 O14         8.4420    6.9860   -3.0850 oh        1 MOL     -0.448272
     93 H37         5.5060    2.0640   -1.7600 hn        1 MOL      0.260959
     94 H38         5.6750    2.8840    1.0260 h1        1 MOL      0.074599
     95 H39         3.8360    4.4980    0.1180 hc        1 MOL      0.018766
     96 H40         3.6480    3.5780   -1.2730 hc        1 MOL      0.018766
     97 H41         5.0720    3.9690   -3.1090 ha        1 MOL      0.126112
     98 H42         6.0040    5.7750    0.6340 ha        1 MOL      0.126112
     99 H43         6.7860    5.4630   -4.3330 ha        1 MOL      0.174921
    100 H44         7.8710    7.1200   -0.5120 ha        1 MOL      0.174921
    101 H45         8.7860    7.5360   -2.3750 ho        1 MOL      0.341209
    102 N10         3.3230    2.6550    1.9890 n         1 MOL     -0.485003
    103 C34         2.4800    2.1760    3.0810 c3        1 MOL      0.221056
    104 C35         1.0770    1.8450    2.6580 c         1 MOL      0.483924
    105 O15         0.9590    0.9950    1.8020 o         1 MOL     -0.534691
    106 C36         3.2620    1.1250    3.9660 c3        1 MOL      0.293404
    107 C37         2.5030    0.8820    5.3520 c3        1 MOL     -0.625929
    108 C38         4.7030    1.5150    4.1810 c3        1 MOL     -0.124597
    109 C39         2.2220    2.1250    6.1840 c3        1 MOL     -0.249099
    110 H46         3.6770    3.6050    1.9890 hn        1 MOL      0.277311
    111 H47         2.3760    2.9890    3.8010 h1        1 MOL     -0.022038
    112 H48         3.2060    0.1540    3.4760 hc        1 MOL     -0.006201
    113 H49         3.1750    0.3310    6.0050 hc        1 MOL      0.233500
    114 H50         1.5170    0.4390    5.2050 hc        1 MOL      0.233500
    115 H51         5.3130    1.2310    3.3230 hc        1 MOL      0.040027
    116 H52         4.8290    2.5860    4.3250 hc        1 MOL      0.040027
    117 H53         5.1290    1.0030    5.0460 hc        1 MOL      0.040027
    118 H54         2.0700    1.7240    7.1790 hc        1 MOL      0.080344
    119 H55         3.0530    2.8260    6.2380 hc        1 MOL      0.080344
    120 H56         1.3110    2.6320    5.8590 hc        1 MOL      0.080344
    121 N11         0.0540    2.4450    3.1880 n         1 MOL     -0.613559
    122 C40        -1.2410    1.7690    3.2470 c3        1 MOL      0.077694
    123 C41        -1.9590    1.8070    1.8670 c         1 MOL      0.242640
    124 O16        -2.9680    1.0580    1.7300 o         1 MOL     -0.466335
    125 C42        -2.1510    2.5740    4.1580 c3        1 MOL      0.033524
    126 O17        -1.7020    2.7400    5.4800 oh        1 MOL     -0.594395
    127 H57         0.2020    3.0970    3.9440 hn        1 MOL      0.327922
    128 H58        -1.1450    0.7840    3.7050 h1        1 MOL      0.199859
    129 H59        -3.1810    2.2140    4.1540 h1        1 MOL      0.108508
    130 H60        -2.1210    3.6020    3.7850 h1        1 MOL      0.108508
    131 H61        -1.0170    3.4050    5.3950 ho        1 MOL      0.392103
    132 N12        -1.4560    2.5060    0.8740 n         1 MOL     -0.188755
    133 C43        -2.0670    2.5460   -0.4400 c3        1 MOL     -0.034115
    134 C44        -1.8430    1.2290   -1.1510 c         1 MOL      0.692951
    135 O18        -0.7660    0.5890   -1.1320 o         1 MOL     -0.675038
    136 C45        -1.6530    3.8110   -1.2000 c3        1 MOL     -0.454397
    137 H62        -0.5730    3.0070    0.9480 hn        1 MOL      0.232908
    138 H63        -3.1320    2.6370   -0.2070 h1        1 MOL      0.147015
    139 H64        -0.5910    3.7020   -1.4210 hc        1 MOL      0.133138
    140 H65        -2.2820    4.0100   -2.0760 hc        1 MOL      0.133138
    141 H66        -1.9780    4.5670   -0.4980 hc        1 MOL      0.133138
    142 N13        -2.8050    0.6440   -1.8690 n         1 MOL     -0.558646
    143 C46        -4.2050    1.0070   -1.8660 c3        1 MOL      0.025946
    144 C47        -4.4470    2.3390   -2.5610 c         1 MOL      0.801755
    145 O19        -3.8980    2.5390   -3.6270 o         1 MOL     -0.624157
    146 C48        -4.9780   -0.1360   -2.4650 c3        1 MOL     -0.297941
    147 H67        -2.5490   -0.1280   -2.4550 hn        1 MOL      0.353736
    148 H68        -4.4900    1.0430   -0.8100 h1        1 MOL      0.116622
    149 H69        -6.0480    0.0660   -2.4880 hc        1 MOL      0.084508
    150 H70        -4.7470   -0.2730   -3.5260 hc        1 MOL      0.084508
    151 H71        -4.6560   -1.0580   -1.9960 hc        1 MOL      0.084508
    152 N14        -5.2510    3.3140   -2.0610 n         1 MOL     -0.464521
    153 C49        -5.9500    3.2960   -0.7260 c3        1 MOL     -0.179931
    154 C50        -5.9890    4.6370    0.0070 c         1 MOL      0.639596
    155 O20        -5.6180    4.6570    1.1630 o         1 MOL     -0.587682
    156 C51        -7.3590    2.6480   -0.8500 c3        1 MOL      0.156747
    157 C52        -8.4780    3.3640   -1.6210 c3        1 MOL     -0.098431
    158 C53        -8.0920    3.8320   -3.0200 c         1 MOL      0.676845
    159 O21        -8.5040    3.1680   -4.0280 o         1 MOL     -0.694267
    160 O22        -7.3730    4.8380   -3.0320 o         1 MOL     -0.694267
    161 H72        -5.3420    4.1890   -2.5490 hn        1 MOL      0.249674
    162 H73        -5.3630    2.6190   -0.0940 h1        1 MOL      0.043213
    163 H74        -7.7390    2.4750    0.1530 hc        1 MOL     -0.036753
    164 H75        -7.1280    1.7030   -1.3450 hc        1 MOL     -0.036753
    165 H76        -8.8980    4.2340   -1.1200 hc        1 MOL     -0.014356
    166 H77        -9.2510    2.6000   -1.7160 hc        1 MOL     -0.014356
    167 N15        -6.1100    5.7650   -0.6800 n         1 MOL     -0.319199
    168 C54        -6.0140    7.0830    0.0280 c3        1 MOL     -0.156882
    169 H78        -6.1790    7.8910   -0.6850 h1        1 MOL      0.079187
    170 H79        -6.7700    7.1310    0.8120 h1        1 MOL      0.079187
    171 H80        -5.0230    7.1860    0.4710 h1        1 MOL      0.079187
    172 H81        -6.5070    5.6910   -1.5990 hn        1 MOL      0.292851
    173 Ca1         1.5230   -0.5180   -0.5120 Ca        1 MOL      1.749569
    174 O23         1.5270    2.2350   -0.8430 oh        1 MOL     -0.801961
    175 H82         1.3530    2.4010   -1.7680 ho        1 MOL      0.402438
    176 H83         1.4250    3.0920   -0.4170 ho        1 MOL      0.402438
    177 O24         1.9350    0.4320   -3.0680 oh        1 MOL     -0.801961
    178 H84         2.0750    1.3620   -3.2600 ho        1 MOL      0.402438
    179 H85         1.4190    0.1130   -3.8150 ho        1 MOL      0.402438
@<TRIPOS>BOND
     1    1    2 1   
     2    1    4 1   
     3    1    5 1   
     4    1    6 1   
     5    2    3 2   
     6    2    7 1   
     7    7    8 1   
     8    7   15 1   
     9    8    9 1   
    10    8   11 1   
    11    8   16 1   
    12    9   10 2   
    13    9   19 1   
    14   11   12 1   
    15   11   17 1   
    16   11   18 1   
    17   12   13 1   
    18   12   14 1   
    19   19   20 1   
    20   19   28 1   
    21   20   21 1   
    22   20   23 1   
    23   20   29 1   
    24   21   22 2   
    25   21   41 1   
    26   23   24 1   
    27   23   30 1   
    28   23   31 1   
    29   24   25 1   
    30   24   32 1   
    31   24   33 1   
    32   25   26 1   
    33   25   34 1   
    34   25   35 1   
    35   26   27 1   
    36   26   36 1   
    37   26   37 1   
    38   27   38 1   
    39   27   39 1   
    40   27   40 1   
    41   41   42 1   
    42   41   49 1   
    43   42   43 1   
    44   42   45 1   
    45   42   50 1   
    46   43   44 2   
    47   43   53 1   
    48   45   46 1   
    49   45   51 1   
    50   45   52 1   
    51   46   47 1   
    52   46   48 1   
    53   53   54 1   
    54   53   57 1   
    55   54   55 1   
    56   54   58 1   
    57   54   59 1   
    58   55   56 2   
    59   55   60 1   
    60   60   61 1   
    61   60   68 1   
    62   61   62 1   
    63   61   64 1   
    64   61   69 1   
    65   62   63 2   
    66   62   74 1   
    67   64   65 1   
    68   64   70 1   
    69   64   71 1   
    70   65   66 1   
    71   65   67 2   
    72   66   72 1   
    73   66   73 1   
    74   74   75 1   
    75   74   78 1   
    76   75   76 1   
    77   75   79 1   
    78   75   80 1   
    79   76   77 2   
    80   76   81 1   
    81   81   82 1   
    82   81   93 1   
    83   82   83 1   
    84   82   85 1   
    85   82   94 1   
    86   83   84 2   
    87   83  102 1   
    88   85   86 1   
    89   85   95 1   
    90   85   96 1   
    91   86   87 ar  
    92   86   88 ar  
    93   87   89 ar  
    94   87   97 1   
    95   88   90 ar  
    96   88   98 1   
    97   89   91 ar  
    98   89   99 1   
    99   90   91 ar  
   100   90  100 1   
   101   91   92 1   
   102   92  101 1   
   103  102  103 1   
   104  102  110 1   
   105  103  104 1   
   106  103  106 1   
   107  103  111 1   
   108  104  105 2   
   109  104  121 1   
   110  106  107 1   
   111  106  108 1   
   112  106  112 1   
   113  107  109 1   
   114  107  113 1   
   115  107  114 1   
   116  108  115 1   
   117  108  116 1   
   118  108  117 1   
   119  109  118 1   
   120  109  119 1   
   121  109  120 1   
   122  121  122 1   
   123  121  127 1   
   124  122  123 1   
   125  122  125 1   
   126  122  128 1   
   127  123  124 2   
   128  123  132 1   
   129  125  126 1   
   130  125  129 1   
   131  125  130 1   
   132  126  131 1   
   133  132  133 1   
   134  132  137 1   
   135  133  134 1   
   136  133  136 1   
   137  133  138 1   
   138  134  135 2   
   139  134  142 1   
   140  136  139 1   
   141  136  140 1   
   142  136  141 1   
   143  142  143 1   
   144  142  147 1   
   145  143  144 1   
   146  143  146 1   
   147  143  148 1   
   148  144  145 2   
   149  144  152 1   
   150  146  149 1   
   151  146  150 1   
   152  146  151 1   
   153  152  153 1   
   154  152  161 1   
   155  153  154 1   
   156  153  156 1   
   157  153  162 1   
   158  154  155 2   
   159  154  167 1   
   160  156  157 1   
   161  156  163 1   
   162  156  164 1   
   163  157  158 1   
   164  157  165 1   
   165  157  166 1   
   166  158  159 1   
   167  158  160 1   
   168  167  168 1   
   169  167  172 1   
   170  168  169 1   
   171  168  170 1   
   172  168  171 1   
   173  174  175 1   
   174  174  176 1   
   175  177  178 1   
   176  177  179 1   
@<TRIPOS>SUBSTRUCTURE
     1 MOL         1 TEMP              0 ****  ****    0 ROOT
