@<TRIPOS>MOLECULE
MOL
  192   187     1     0     0
SMALL
resp


@<TRIPOS>ATOM
      1 C1         -5.1910   -4.6810    3.1270 c3        1 MOL     -0.021756
      2 C2         -3.9660   -4.3480    2.2850 c         1 MOL      0.587955
      3 O1         -3.0890   -3.5830    2.7580 o         1 MOL     -0.494152
      4 H1         -6.0800   -4.6640    2.4980 hc        1 MOL     -0.004142
      5 H2         -5.0740   -5.6740    3.5620 hc        1 MOL     -0.004142
      6 H3         -5.2950   -3.9450    3.9250 hc        1 MOL     -0.004142
      7 N1         -3.8520   -4.7420    0.9800 n         1 MOL     -0.485581
      8 C3         -2.9840   -4.3310   -0.0320 c3        1 MOL     -0.027500
      9 C4         -1.4340   -4.2520    0.3620 c         1 MOL      0.684721
     10 O2         -0.6580   -3.4010   -0.0270 o         1 MOL     -0.598669
     11 C5         -3.5320   -3.0190   -0.6740 c3        1 MOL     -0.286065
     12 C6         -5.0440   -2.8600   -0.8080 c         1 MOL      0.651631
     13 O3         -5.6440   -1.9380   -0.1480 o         1 MOL     -0.681606
     14 O4         -5.7130   -3.5950   -1.5780 o         1 MOL     -0.681606
     15 H4         -4.5560   -5.3510    0.5900 hn        1 MOL      0.252691
     16 H5         -3.0890   -5.0170   -0.8730 h1        1 MOL      0.088131
     17 H6         -3.0970   -2.8560   -1.6520 hc        1 MOL      0.139122
     18 H7         -3.1820   -2.1810   -0.0640 hc        1 MOL      0.139122
     19 N2         -1.0080   -5.1950    1.2100 n         1 MOL     -0.664693
     20 C7          0.3500   -5.4030    1.7220 c3        1 MOL      0.200366
     21 C8          1.1790   -6.3730    0.9240 c         1 MOL      0.589674
     22 O5          0.6990   -7.4390    0.6050 o         1 MOL     -0.611456
     23 C9          0.2950   -5.8180    3.2000 c3        1 MOL     -0.007732
     24 C10        -0.6020   -5.0090    4.2150 c3        1 MOL      0.032670
     25 C11         1.7950   -5.9370    3.8610 c3        1 MOL     -0.215387
     26 C12        -0.1750   -3.6100    4.6140 c3        1 MOL     -0.141348
     27 H8         -1.6540   -5.9240    1.4760 hn        1 MOL      0.287209
     28 H9          0.8130   -4.4240    1.7190 h1        1 MOL      0.243271
     29 H10        -0.0540   -6.8520    3.2080 hc        1 MOL     -0.016011
     30 H11        -0.6360   -5.5960    5.1310 hc        1 MOL     -0.001217
     31 H12        -1.6640   -5.0830    3.9760 hc        1 MOL     -0.001217
     32 H13         2.3790   -6.6830    3.3140 hc        1 MOL      0.043939
     33 H14         2.3170   -4.9880    3.7940 hc        1 MOL      0.043939
     34 H15         1.7960   -6.2380    4.9070 hc        1 MOL      0.043939
     35 H16        -0.9780   -3.0250    5.0540 hc        1 MOL      0.038590
     36 H17         0.6400   -3.7240    5.3250 hc        1 MOL      0.038590
     37 H18         0.1680   -3.1250    3.7050 hc        1 MOL      0.038590
     38 N3          2.4440   -6.1150    0.6340 n         1 MOL     -0.335539
     39 C13         2.9500   -4.8350    0.1810 c3        1 MOL     -0.258838
     40 C14         3.9510   -5.1040   -0.9900 c         1 MOL      0.621223
     41 O6          4.7520   -6.0080   -0.9840 o         1 MOL     -0.524398
     42 C15         3.6440   -4.0220    1.3550 c3        1 MOL     -0.001059
     43 C16         4.4110   -2.8780    0.7700 c         1 MOL      0.651716
     44 O7          5.6480   -3.0200    0.6660 o         1 MOL     -0.673109
     45 O8          3.7610   -1.9290    0.3050 o         1 MOL     -0.673109
     46 H19         2.8810   -6.9910    0.3580 hn        1 MOL      0.240906
     47 H20         2.0580   -4.3440   -0.2110 h1        1 MOL      0.087986
     48 H21         4.2620   -4.6140    2.0360 hc        1 MOL     -0.006098
     49 H22         2.8680   -3.5290    1.9210 hc        1 MOL     -0.006098
     50 N4          3.9050   -4.3100   -2.0920 n         1 MOL     -0.425717
     51 C17         4.6600   -4.5630   -3.3390 c3        1 MOL     -0.149396
     52 C18         5.9350   -3.6490   -3.4250 c         1 MOL      0.676524
     53 O9          6.7510   -3.9930   -4.3040 o         1 MOL     -0.624411
     54 H23         3.2390   -3.5500   -2.0350 hn        1 MOL      0.307117
     55 H24         4.0790   -4.3130   -4.2210 h1        1 MOL      0.099635
     56 H25         4.9590   -5.6120   -3.4000 h1        1 MOL      0.099635
     57 N5          6.0750   -2.5370   -2.6870 n         1 MOL     -0.572097
     58 C19         7.0930   -1.4880   -2.9430 c3        1 MOL      0.131444
     59 C20         7.8760   -1.0290   -1.6750 c         1 MOL      0.375384
     60 O10         9.0070   -0.5130   -1.8900 o         1 MOL     -0.608320
     61 C21         6.4690   -0.4250   -3.8310 c3        1 MOL     -0.254357
     62 C22         5.1560    0.1360   -3.2000 c         1 MOL      0.725543
     63 O11         5.1910    0.9740   -2.2980 o         1 MOL     -0.705958
     64 O12         4.0830   -0.3310   -3.6920 o         1 MOL     -0.705958
     65 H26         5.3960   -2.4300   -1.9470 hn        1 MOL      0.362709
     66 H27         7.8140   -2.0270   -3.5650 h1        1 MOL      0.078892
     67 H28         6.1840   -0.8580   -4.7890 hc        1 MOL      0.040864
     68 H29         7.2330    0.3490   -3.9540 hc        1 MOL      0.040864
     69 N6          7.3280   -1.1160   -0.4980 n         1 MOL     -0.049839
     70 C23         8.0490   -0.6180    0.7100 c3        1 MOL     -0.172290
     71 C24         8.2500    0.8880    0.6810 c         1 MOL      0.547205
     72 O13         8.9540    1.3850    1.5200 o         1 MOL     -0.627292
     73 H30         6.4450   -1.5850   -0.3540 hn        1 MOL      0.153261
     74 H31         9.0020   -1.1300    0.8150 h1        1 MOL      0.093978
     75 H32         7.4890   -0.8260    1.6200 h1        1 MOL      0.093978
     76 N7          7.5830    1.6230   -0.1430 n         1 MOL     -0.101975
     77 C25         7.5550    3.0680   -0.2830 c3        1 MOL      0.308434
     78 C26         6.9560    3.7710    0.9940 c         1 MOL      0.272186
     79 O14         7.2820    4.9230    1.2120 o         1 MOL     -0.473878
     80 C27         8.8250    3.7020   -0.8540 c3        1 MOL     -0.244181
     81 C28         9.3790    3.0010   -2.1080 c3        1 MOL      0.016972
     82 C29        10.3260    3.8420   -2.9970 c         1 MOL      0.637515
     83 N8         10.8950    3.2260   -4.0200 n         1 MOL     -0.823409
     84 O15        10.5240    5.0360   -2.8610 o         1 MOL     -0.580588
     85 H33         7.0350    1.0800   -0.7960 hn        1 MOL      0.053397
     86 H34         6.7660    3.2560   -1.0060 h1        1 MOL      0.040937
     87 H35         9.6620    3.6370   -0.1480 hc        1 MOL      0.057990
     88 H36         8.5430    4.7330   -1.0900 hc        1 MOL      0.057990
     89 H37         8.5340    2.6900   -2.7260 hc        1 MOL      0.023772
     90 H38         9.9750    2.1430   -1.7950 hc        1 MOL      0.023772
     91 H39        10.7950    2.2240   -4.1070 hn        1 MOL      0.356327
     92 H40        11.3360    3.8400   -4.7060 hn        1 MOL      0.356327
     93 N9          5.9900    3.0740    1.6990 n         1 MOL     -0.179959
     94 C30         5.4090    3.5390    2.9680 c3        1 MOL     -0.186499
     95 C31         3.8370    3.4170    3.0870 c         1 MOL      0.532937
     96 O16         3.2410    3.8490    4.1090 o         1 MOL     -0.570035
     97 C32         6.1130    2.8630    4.2010 c3        1 MOL      0.385443
     98 C33         5.9120    1.3100    4.3930 c3        1 MOL     -0.274876
     99 C34         7.5530    3.2450    4.1810 c3        1 MOL     -0.274876
    100 H41         5.7370    2.1390    1.3960 hn        1 MOL      0.198860
    101 H42         5.6240    4.6080    2.9420 h1        1 MOL      0.107208
    102 H43         5.7090    3.3030    5.1060 hc        1 MOL     -0.068469
    103 H44         4.8570    1.0710    4.5440 hc        1 MOL      0.052432
    104 H45         6.2220    0.8280    3.4690 hc        1 MOL      0.052432
    105 H46         6.4810    1.0420    5.2780 hc        1 MOL      0.052432
    106 H47         7.6530    4.3130    3.9830 hc        1 MOL      0.052432
    107 H48         8.0590    2.9890    5.1150 hc        1 MOL      0.052432
    108 H49         8.0640    2.5910    3.4730 hc        1 MOL      0.052432
    109 N10         3.2750    2.7140    2.1160 n         1 MOL     -0.469739
    110 C35         1.9990    1.9240    2.1820 c3        1 MOL      0.434762
    111 C36         1.2440    2.0890    0.8200 c         1 MOL      0.457818
    112 O17         1.8820    2.4130   -0.1610 o         1 MOL     -0.480990
    113 C37         2.2340    0.4960    2.6530 c3        1 MOL     -0.267696
    114 C38         1.0720   -0.4350    2.2760 c         1 MOL      0.452471
    115 N11         1.2910   -1.3410    1.3260 n         1 MOL     -0.529634
    116 O18        -0.0360   -0.1520    2.6970 o         1 MOL     -0.555855
    117 H50         3.8540    2.5550    1.2970 hn        1 MOL      0.191362
    118 H51         1.4040    2.4810    2.9150 h1        1 MOL     -0.015701
    119 H52         2.5040    0.4120    3.7130 hc        1 MOL      0.074577
    120 H53         3.0850    0.0200    2.1710 hc        1 MOL      0.074577
    121 H54         2.2250   -1.4080    0.9550 hn        1 MOL      0.328229
    122 H55         0.5180   -1.8960    0.9740 hn        1 MOL      0.328229
    123 N12        -0.0500    1.8880    0.8220 n         1 MOL     -0.646071
    124 C39        -0.9840    2.3930   -0.2420 c3        1 MOL      0.318551
    125 C40        -2.2900    2.9620    0.2930 c         1 MOL      0.666727
    126 O19        -2.9370    2.2920    1.1160 o         1 MOL     -0.601439
    127 C41        -1.3710    1.1900   -1.1490 c3        1 MOL     -0.087602
    128 C42        -2.5930    1.3810   -2.0900 ca        1 MOL      0.027786
    129 C43        -2.5730    2.2830   -3.1570 ca        1 MOL     -0.139975
    130 C44        -3.6990    0.5330   -1.8890 ca        1 MOL     -0.139975
    131 C45        -3.7270    2.4160   -3.9590 ca        1 MOL     -0.301940
    132 C46        -4.7840    0.5720   -2.8130 ca        1 MOL     -0.301940
    133 C47        -4.8050    1.5810   -3.8650 ca        1 MOL      0.349507
    134 O20        -5.7950    1.6690   -4.7920 oh        1 MOL     -0.482097
    135 H56        -0.4480    1.3550    1.5840 hn        1 MOL      0.316687
    136 H57        -0.4780    3.1230   -0.8820 h1        1 MOL      0.013822
    137 H58        -1.5460    0.3570   -0.4670 hc        1 MOL      0.062971
    138 H59        -0.5170    0.8950   -1.7550 hc        1 MOL      0.062971
    139 H60        -1.6480    2.7680   -3.4350 ha        1 MOL      0.125749
    140 H61        -3.8410   -0.1090   -1.0330 ha        1 MOL      0.125749
    141 H62        -3.7040    3.2490   -4.6380 ha        1 MOL      0.174039
    142 H63        -5.5370   -0.2010   -2.7400 ha        1 MOL      0.174039
    143 H64        -5.7100    2.3960   -5.4190 ho        1 MOL      0.337760
    144 N13        -2.7250    4.0430   -0.2740 n         1 MOL     -0.874242
    145 C48        -4.0450    4.5880    0.0820 c3        1 MOL      0.382753
    146 C49        -5.0720    4.2910   -1.0540 c         1 MOL      0.705754
    147 O21        -4.8850    4.7920   -2.1620 o         1 MOL     -0.590508
    148 C50        -3.9320    6.1480    0.2510 c3        1 MOL      0.109316
    149 C51        -5.1830    6.9650    0.4370 c3        1 MOL     -0.160778
    150 C52        -4.8780    8.4290    0.7480 c         1 MOL      0.641475
    151 O22        -4.7220    8.6710    1.9910 o         1 MOL     -0.667803
    152 O23        -4.7140    9.2820   -0.1740 o         1 MOL     -0.667803
    153 H65        -2.1200    4.5430   -0.9250 hn        1 MOL      0.376309
    154 H66        -4.4270    4.0540    0.9530 h1        1 MOL      0.016411
    155 H67        -3.3850    6.5890   -0.5820 hc        1 MOL     -0.013360
    156 H68        -3.4010    6.3190    1.1910 hc        1 MOL     -0.013360
    157 H69        -5.7630    6.5730    1.2710 hc        1 MOL      0.008650
    158 H70        -5.7240    6.9970   -0.5070 hc        1 MOL      0.008650
    159 N14        -6.1870    3.5740   -0.8190 n         1 MOL     -0.861631
    160 C53        -6.4420    2.5840    0.2880 c3        1 MOL      0.092046
    161 C54        -6.9440    3.1480    1.6320 c         1 MOL      0.517907
    162 O24        -7.3630    4.2410    1.8620 o         1 MOL     -0.507973
    163 C55        -7.3750    1.4950   -0.1490 c3        1 MOL      0.053453
    164 C56        -8.6830    1.9920   -0.8500 c3        1 MOL     -0.005906
    165 C57        -9.6790    0.8600   -1.1440 c         1 MOL      0.703848
    166 O25        -9.3550   -0.3390   -0.7820 o         1 MOL     -0.732897
    167 O26       -10.8500    1.1750   -1.5840 o         1 MOL     -0.732897
    168 H71        -6.7570    3.5720   -1.6570 hn        1 MOL      0.428184
    169 H72        -5.4340    2.1900    0.3780 h1        1 MOL      0.061952
    170 H73        -7.5540    0.8650    0.7240 hc        1 MOL     -0.059126
    171 H74        -6.8710    0.9330   -0.9400 hc        1 MOL     -0.059126
    172 H75        -8.3890    2.4610   -1.7850 hc        1 MOL      0.005037
    173 H76        -9.1900    2.6390   -0.1300 hc        1 MOL      0.005037
    174 N15        -6.6180    2.3960    2.6990 n         1 MOL     -0.275913
    175 C58        -6.6640    2.7910    4.1390 c3        1 MOL     -0.308536
    176 H77        -5.6480    2.9420    4.5060 h1        1 MOL      0.125882
    177 H78        -7.2300    3.7170    4.2440 h1        1 MOL      0.125882
    178 H79        -7.1450    2.0020    4.7170 h1        1 MOL      0.125882
    179 H80        -6.0880    1.5420    2.5620 hn        1 MOL      0.263635
    180 Ca1        -8.1710   -2.6290   -0.8520 Ca        1 MOL      1.725216
    181 O27        -8.3850   -4.9870   -2.1770 oh        1 MOL     -0.908713
    182 H81        -8.1940   -5.8650   -1.8560 ho        1 MOL      0.423635
    183 H82        -8.7970   -5.1290   -3.0310 ho        1 MOL      0.423635
    184 O28       -10.3400   -2.6480   -2.4620 oh        1 MOL     -0.908713
    185 H83       -10.5190   -1.8980   -3.0280 ho        1 MOL      0.423635
    186 H84       -10.9970   -3.3060   -2.7100 ho        1 MOL      0.423635
    187 O29        -7.9000   -1.5170    1.6520 oh        1 MOL     -0.908713
    188 H85        -8.3730   -0.7460    1.9760 ho        1 MOL      0.423635
    189 H86        -6.9750   -1.3080    1.7920 ho        1 MOL      0.423635
    190 O30        -7.9340   -1.3110   -3.1910 oh        1 MOL     -0.908713
    191 H87        -7.7600   -1.5000   -4.1040 ho        1 MOL      0.423635
    192 H88        -8.7110   -0.7530   -3.2020 ho        1 MOL      0.423635
@<TRIPOS>BOND
     1    1    2 1   
     2    1    4 1   
     3    1    5 1   
     4    1    6 1   
     5    2    3 2   
     6    2    7 1   
     7    7    8 1   
     8    7   15 1   
     9    8    9 1   
    10    8   11 1   
    11    8   16 1   
    12    9   10 2   
    13    9   19 1   
    14   11   12 1   
    15   11   17 1   
    16   11   18 1   
    17   12   13 1   
    18   12   14 1   
    19   19   20 1   
    20   19   27 1   
    21   20   21 1   
    22   20   23 1   
    23   20   28 1   
    24   21   22 2   
    25   21   38 1   
    26   23   24 1   
    27   23   25 1   
    28   23   29 1   
    29   24   26 1   
    30   24   30 1   
    31   24   31 1   
    32   25   32 1   
    33   25   33 1   
    34   25   34 1   
    35   26   35 1   
    36   26   36 1   
    37   26   37 1   
    38   38   39 1   
    39   38   46 1   
    40   39   40 1   
    41   39   42 1   
    42   39   47 1   
    43   40   41 2   
    44   40   50 1   
    45   42   43 1   
    46   42   48 1   
    47   42   49 1   
    48   43   44 1   
    49   43   45 1   
    50   50   51 1   
    51   50   54 1   
    52   51   52 1   
    53   51   55 1   
    54   51   56 1   
    55   52   53 2   
    56   52   57 1   
    57   57   58 1   
    58   57   65 1   
    59   58   59 1   
    60   58   61 1   
    61   58   66 1   
    62   59   60 2   
    63   59   69 1   
    64   61   62 1   
    65   61   67 1   
    66   61   68 1   
    67   62   63 1   
    68   62   64 1   
    69   69   70 1   
    70   69   73 1   
    71   70   71 1   
    72   70   74 1   
    73   70   75 1   
    74   71   72 2   
    75   71   76 1   
    76   76   77 1   
    77   76   85 1   
    78   77   78 1   
    79   77   80 1   
    80   77   86 1   
    81   78   79 2   
    82   78   93 1   
    83   80   81 1   
    84   80   87 1   
    85   80   88 1   
    86   81   82 1   
    87   81   89 1   
    88   81   90 1   
    89   82   83 1   
    90   82   84 2   
    91   83   91 1   
    92   83   92 1   
    93   93   94 1   
    94   93  100 1   
    95   94   95 1   
    96   94   97 1   
    97   94  101 1   
    98   95   96 2   
    99   95  109 1   
   100   97   98 1   
   101   97   99 1   
   102   97  102 1   
   103   98  103 1   
   104   98  104 1   
   105   98  105 1   
   106   99  106 1   
   107   99  107 1   
   108   99  108 1   
   109  109  110 1   
   110  109  117 1   
   111  110  111 1   
   112  110  113 1   
   113  110  118 1   
   114  111  112 2   
   115  111  123 1   
   116  113  114 1   
   117  113  119 1   
   118  113  120 1   
   119  114  115 1   
   120  114  116 2   
   121  115  121 1   
   122  115  122 1   
   123  123  124 1   
   124  123  135 1   
   125  124  125 1   
   126  124  127 1   
   127  124  136 1   
   128  125  126 2   
   129  125  144 1   
   130  127  128 1   
   131  127  137 1   
   132  127  138 1   
   133  128  129 ar  
   134  128  130 ar  
   135  129  131 ar  
   136  129  139 1   
   137  130  132 ar  
   138  130  140 1   
   139  131  133 ar  
   140  131  141 1   
   141  132  133 ar  
   142  132  142 1   
   143  133  134 1   
   144  134  143 1   
   145  144  145 1   
   146  144  153 1   
   147  145  146 1   
   148  145  148 1   
   149  145  154 1   
   150  146  147 2   
   151  146  159 1   
   152  148  149 1   
   153  148  155 1   
   154  148  156 1   
   155  149  150 1   
   156  149  157 1   
   157  149  158 1   
   158  150  151 1   
   159  150  152 1   
   160  159  160 1   
   161  159  168 1   
   162  160  161 1   
   163  160  163 1   
   164  160  169 1   
   165  161  162 2   
   166  161  174 1   
   167  163  164 1   
   168  163  170 1   
   169  163  171 1   
   170  164  165 1   
   171  164  172 1   
   172  164  173 1   
   173  165  166 1   
   174  165  167 1   
   175  174  175 1   
   176  174  179 1   
   177  175  176 1   
   178  175  177 1   
   179  175  178 1   
   180  181  182 1   
   181  181  183 1   
   182  184  185 1   
   183  184  186 1   
   184  187  188 1   
   185  187  189 1   
   186  190  191 1   
   187  190  192 1   
@<TRIPOS>SUBSTRUCTURE
     1 MOL         1 TEMP              0 ****  ****    0 ROOT
