@<TRIPOS>MOLECULE
MOL
  195   189     1     0     0
SMALL
resp


@<TRIPOS>ATOM
      1 C1         -1.1340    3.3070   -3.1450 c3        1 MOL     -0.462703
      2 C2         -0.3430    3.8550   -1.9350 c         1 MOL      0.744710
      3 O1          0.3280    3.1130   -1.1760 o         1 MOL     -0.510812
      4 H1         -1.9180    4.0140   -3.4170 hc        1 MOL      0.120240
      5 H2         -0.4590    3.1720   -3.9900 hc        1 MOL      0.120240
      6 H3         -1.5840    2.3500   -2.8830 hc        1 MOL      0.120240
      7 N1         -0.4570    5.1160   -1.5480 n         1 MOL     -0.633255
      8 C3          0.1840    5.6080   -0.3010 c3        1 MOL     -0.195253
      9 C4          1.6510    5.3250   -0.1640 c         1 MOL      0.807511
     10 O2          2.1400    5.1250    0.9440 o         1 MOL     -0.529596
     11 C5         -0.5950    5.1870    0.9650 c3        1 MOL     -0.395327
     12 C6         -2.1190    5.2810    0.8060 c         1 MOL      0.813593
     13 O3         -2.7460    6.3870    0.6090 o         1 MOL     -0.766844
     14 O4         -2.8650    4.2660    0.9750 o         1 MOL     -0.766844
     15 H4         -1.0050    5.8120   -2.0210 hn        1 MOL      0.316080
     16 H5         -0.0830    6.6620   -0.3340 h1        1 MOL      0.140157
     17 H6         -0.4480    5.8170    1.8370 hc        1 MOL      0.163173
     18 H7         -0.3380    4.1380    1.1200 hc        1 MOL      0.163173
     19 N2          2.3900    5.2450   -1.2860 n         1 MOL     -0.628138
     20 C7          3.8690    5.0850   -1.3440 c3        1 MOL     -0.184410
     21 C8          4.6550    6.2160   -0.5750 c         1 MOL      0.394035
     22 O5          4.0480    7.2830   -0.3310 o         1 MOL     -0.547975
     23 C9          4.3800    5.0590   -2.8620 c3        1 MOL      0.431763
     24 C10         4.1380    6.3790   -3.6260 c3        1 MOL     -0.103876
     25 C11         3.7860    3.7920   -3.5260 c3        1 MOL     -0.269957
     26 C12         4.5310    6.4580   -5.1130 c3        1 MOL     -0.035794
     27 H8          1.8820    5.4250   -2.1380 hn        1 MOL      0.355190
     28 H9          4.1940    4.1430   -0.8950 h1        1 MOL      0.213965
     29 H10         5.4430    4.8500   -2.7320 hc        1 MOL     -0.074970
     30 H11         4.7190    7.1740   -3.1470 hc        1 MOL      0.013632
     31 H12         3.0560    6.5200   -3.5260 hc        1 MOL      0.013632
     32 H13         4.1460    2.9570   -2.9280 hc        1 MOL      0.045380
     33 H14         2.6980    3.8200   -3.5880 hc        1 MOL      0.045380
     34 H15         4.2290    3.7860   -4.5270 hc        1 MOL      0.045380
     35 H16         5.5990    6.2910   -5.2550 hc        1 MOL      0.001263
     36 H17         4.1440    5.5910   -5.6440 hc        1 MOL      0.001263
     37 H18         4.2300    7.3090   -5.7310 hc        1 MOL      0.001263
     38 N3          5.9040    6.1210   -0.1940 n         1 MOL     -0.341020
     39 C13         6.8280    5.0100   -0.3110 c3        1 MOL      0.100398
     40 C14         6.3170    3.6860    0.4080 c         1 MOL      0.391474
     41 O6          6.3610    2.5920   -0.2160 o         1 MOL     -0.609203
     42 C15         8.1450    5.4730    0.3500 c3        1 MOL     -0.375848
     43 C16         8.0790    6.2450    1.7380 c         1 MOL      0.698825
     44 O7          7.2780    5.9700    2.6860 o         1 MOL     -0.692482
     45 O8          9.0090    7.0630    1.8790 o         1 MOL     -0.692482
     46 H19         6.4180    6.9670    0.0050 hn        1 MOL      0.289444
     47 H20         7.1100    4.7710   -1.3340 h1        1 MOL      0.043957
     48 H21         8.7050    6.1360   -0.3170 hc        1 MOL      0.090160
     49 H22         8.6820    4.5620    0.5910 hc        1 MOL      0.090160
     50 N4          5.7400    3.7750    1.5980 n         1 MOL     -0.079629
     51 C17         5.0670    2.6790    2.2550 c3        1 MOL     -0.246346
     52 C18         5.9260    1.5390    2.7950 c         1 MOL      0.748640
     53 O9          6.8980    1.8240    3.4360 o         1 MOL     -0.572238
     54 H23         5.8920    4.6700    2.0320 hn        1 MOL      0.226811
     55 H24         4.3590    2.2590    1.5370 h1        1 MOL      0.085364
     56 H25         4.5030    3.1190    3.0690 h1        1 MOL      0.085364
     57 N5          5.5230    0.3230    2.4730 n         1 MOL     -0.567855
     58 C19         6.1230   -0.8830    2.9490 c3        1 MOL      0.152674
     59 C20         6.7770   -1.6200    1.8110 c         1 MOL      0.453620
     60 O10         7.6920   -2.3820    2.0870 o         1 MOL     -0.558233
     61 C21         5.1250   -1.8220    3.6130 c3        1 MOL     -0.257508
     62 C22         3.8090   -2.0490    2.8580 c         1 MOL      0.764230
     63 O11         3.8000   -2.8700    1.9610 o         1 MOL     -0.725642
     64 O12         2.8730   -1.2680    3.1310 o         1 MOL     -0.725642
     65 H26         4.5820    0.2430    2.1080 hn        1 MOL      0.285154
     66 H27         6.9010   -0.6670    3.6870 h1        1 MOL      0.066475
     67 H28         4.8500   -1.3350    4.5470 hc        1 MOL      0.041277
     68 H29         5.6530   -2.7520    3.8310 hc        1 MOL      0.041277
     69 N6          6.3840   -1.4140    0.5230 n         1 MOL     -0.196643
     70 C23         6.8310   -2.0880   -0.6660 c3        1 MOL     -0.457904
     71 C24         6.5340   -3.5380   -0.7890 c         1 MOL      0.624285
     72 O13         6.9110   -4.1030   -1.8050 o         1 MOL     -0.603428
     73 H30         5.6170   -0.7530    0.4380 hn        1 MOL      0.238183
     74 H31         7.8990   -1.9120   -0.8010 h1        1 MOL      0.185918
     75 H32         6.3600   -1.5090   -1.4650 h1        1 MOL      0.185918
     76 N7          5.7870   -4.1960    0.0880 n         1 MOL     -0.270053
     77 C25         5.1420   -5.4960   -0.1300 c3        1 MOL      0.008616
     78 C26         4.4870   -5.7600   -1.4750 c         1 MOL      0.383265
     79 O14         4.5030   -6.9550   -1.9420 o         1 MOL     -0.530915
     80 C27         6.0200   -6.5960    0.4340 c3        1 MOL      0.260675
     81 C28         6.5590   -6.4170    1.8530 c3        1 MOL     -0.196380
     82 C29         7.1200   -7.7640    2.4160 c         1 MOL      0.604584
     83 N8          8.2520   -8.2060    2.0480 n         1 MOL     -0.737602
     84 O15         6.5200   -8.5280    3.2330 o         1 MOL     -0.594832
     85 H33         5.5600   -3.7410    0.9680 hn        1 MOL      0.212017
     86 H34         4.2320   -5.6160    0.4520 h1        1 MOL      0.095717
     87 H35         6.8870   -6.8090   -0.1920 hc        1 MOL     -0.049906
     88 H36         5.5250   -7.5610    0.5100 hc        1 MOL     -0.049906
     89 H37         5.7820   -6.0140    2.5030 hc        1 MOL      0.053786
     90 H38         7.3630   -5.6750    1.7670 hc        1 MOL      0.053786
     91 H39         8.7280   -7.8990    1.2120 hn        1 MOL      0.348266
     92 H40         8.4060   -9.0930    2.5060 hn        1 MOL      0.348266
     93 N9          3.8260   -4.7270   -2.1100 n         1 MOL     -0.154960
     94 C30         3.0950   -4.9240   -3.3970 c3        1 MOL     -0.207089
     95 C31         1.5810   -4.6210   -3.2870 c         1 MOL      0.604831
     96 O16         0.7910   -4.9440   -4.1560 o         1 MOL     -0.555987
     97 C32         3.7760   -4.1810   -4.5560 c3        1 MOL      0.446073
     98 C33         3.9760   -2.7110   -4.2740 c3        1 MOL     -0.453726
     99 C34         5.0740   -4.7920   -4.9540 c3        1 MOL     -0.453726
    100 H41         3.8260   -3.8440   -1.6220 hn        1 MOL      0.205803
    101 H42         3.1720   -5.9760   -3.6930 h1        1 MOL      0.125306
    102 H43         3.1680   -4.3460   -5.4450 hc        1 MOL     -0.066998
    103 H44         4.2470   -2.2720   -5.2340 hc        1 MOL      0.103924
    104 H45         3.0380   -2.3360   -3.8500 hc        1 MOL      0.103924
    105 H46         4.8520   -2.5800   -3.6370 hc        1 MOL      0.103924
    106 H47         4.9490   -5.8620   -5.1260 hc        1 MOL      0.103924
    107 H48         5.3830   -4.2500   -5.8420 hc        1 MOL      0.103924
    108 H49         5.7660   -4.7860   -4.1110 hc        1 MOL      0.103924
    109 N10         1.1150   -4.0930   -2.1240 n         1 MOL     -0.584638
    110 C35        -0.1730   -3.3650   -2.0290 c3        1 MOL      0.494331
    111 C36        -0.9290   -3.7270   -0.7710 c         1 MOL      0.418722
    112 O17        -0.4630   -4.3830    0.2030 o         1 MOL     -0.533121
    113 C37         0.2390   -1.9000   -2.2950 c3        1 MOL     -0.305607
    114 C38        -0.8270   -0.8290   -2.0050 c         1 MOL      0.686220
    115 N11        -0.6810   -0.0320   -0.9120 n         1 MOL     -0.964609
    116 O18        -1.8190   -0.7220   -2.7200 o         1 MOL     -0.580405
    117 H50         1.7700   -3.8890   -1.3830 hn        1 MOL      0.234734
    118 H51        -0.8730   -3.6750   -2.8040 h1        1 MOL     -0.001760
    119 H52         0.5250   -1.8840   -3.3430 hc        1 MOL      0.079352
    120 H53         1.1630   -1.7130   -1.7470 hc        1 MOL      0.079352
    121 H54         0.1380   -0.0840   -0.3310 hn        1 MOL      0.444681
    122 H55        -1.3900    0.6570   -0.7020 hn        1 MOL      0.444681
    123 N12        -2.0900   -3.1250   -0.6250 n         1 MOL     -0.536931
    124 C39        -2.9800   -3.3710    0.5320 c3        1 MOL      0.452643
    125 C40        -4.4430   -3.1180    0.0740 c         1 MOL      0.327052
    126 O19        -4.6750   -2.3220   -0.8700 o         1 MOL     -0.585419
    127 C41        -2.5020   -2.3080    1.5810 c3        1 MOL     -0.338434
    128 C42        -3.2980   -2.3380    2.8160 ca        1 MOL      0.174679
    129 C43        -4.0540   -1.2310    3.2690 ca        1 MOL     -0.256970
    130 C44        -3.3290   -3.5320    3.5860 ca        1 MOL     -0.256970
    131 C45        -4.9130   -1.3800    4.3350 ca        1 MOL     -0.164098
    132 C46        -4.0450   -3.6240    4.7820 ca        1 MOL     -0.164098
    133 C47        -4.8910   -2.5530    5.1170 ca        1 MOL      0.270373
    134 O20        -5.6310   -2.5950    6.2990 oh        1 MOL     -0.500532
    135 H56        -2.4140   -2.4940   -1.3480 hn        1 MOL      0.292821
    136 H57        -2.8900   -4.4110    0.8460 h1        1 MOL     -0.003317
    137 H58        -2.5710   -1.3390    1.0910 hc        1 MOL      0.133860
    138 H59        -1.4350   -2.4850    1.7300 hc        1 MOL      0.133860
    139 H60        -4.0600   -0.3470    2.6530 ha        1 MOL      0.160769
    140 H61        -2.7740   -4.3810    3.2240 ha        1 MOL      0.160769
    141 H62        -5.4800   -0.5830    4.7980 ha        1 MOL      0.122402
    142 H63        -4.1380   -4.5470    5.3160 ha        1 MOL      0.122402
    143 H64        -6.1850   -1.8200    6.3920 ho        1 MOL      0.348903
    144 N13        -5.4620   -3.6740    0.6910 n         1 MOL     -0.290899
    145 C48        -6.8760   -3.5370    0.2230 c3        1 MOL      0.111119
    146 C49        -7.7850   -2.7470    1.1600 c         1 MOL      0.344300
    147 O21        -7.9680   -3.1190    2.3250 o         1 MOL     -0.550599
    148 C50        -7.4890   -4.9410   -0.0160 c3        1 MOL      0.205908
    149 C51        -6.4640   -5.7450   -0.7990 c3        1 MOL     -0.190739
    150 C52        -6.8840   -7.0930   -1.4510 c         1 MOL      0.727807
    151 O22        -7.3620   -7.0760   -2.5660 o         1 MOL     -0.733486
    152 O23        -6.7130   -8.1450   -0.7650 o         1 MOL     -0.733486
    153 H65        -5.2240   -4.1210    1.5610 hn        1 MOL      0.264020
    154 H66        -6.9740   -3.0950   -0.7680 h1        1 MOL      0.158756
    155 H67        -8.4690   -4.8560   -0.4820 hc        1 MOL     -0.044438
    156 H68        -7.6010   -5.5360    0.8890 hc        1 MOL     -0.044438
    157 H69        -5.6390   -5.9090   -0.1090 hc        1 MOL     -0.019423
    158 H70        -6.0650   -5.0610   -1.5460 hc        1 MOL     -0.019423
    159 N14        -8.2420   -1.5480    0.8730 n         1 MOL     -0.417799
    160 C53        -7.8820   -0.6640   -0.2860 c3        1 MOL      0.035787
    161 C54        -8.4350   -1.2370   -1.6330 c         1 MOL      0.356452
    162 O24        -9.1760   -2.2050   -1.6280 o         1 MOL     -0.452092
    163 C55        -8.3920    0.7930   -0.0110 c3        1 MOL      0.006305
    164 C56        -7.8670    1.4890    1.1840 c3        1 MOL     -0.177453
    165 C57        -7.6630    3.0240    0.9310 c         1 MOL      0.798054
    166 O25        -8.6830    3.7850    0.8350 o         1 MOL     -0.757309
    167 O26        -6.5590    3.4640    0.8590 o         1 MOL     -0.757309
    168 H71        -8.7120   -1.1070    1.6410 hn        1 MOL      0.319321
    169 H72        -6.7970   -0.6130   -0.3750 h1        1 MOL      0.110428
    170 H73        -9.4830    0.7240   -0.0340 hc        1 MOL      0.007747
    171 H74        -7.9900    1.3440   -0.8600 hc        1 MOL      0.007747
    172 H75        -6.8730    1.0570    1.3090 hc        1 MOL      0.027641
    173 H76        -8.4560    1.3410    2.0950 hc        1 MOL      0.027641
    174 N15        -7.8840   -0.7720   -2.7380 n         1 MOL     -0.342463
    175 C58        -8.0720   -1.2370   -4.1190 c3        1 MOL     -0.175363
    176 H77        -7.4140   -2.0860   -4.3070 h1        1 MOL      0.104331
    177 H78        -9.1080   -1.5420   -4.2630 h1        1 MOL      0.104331
    178 H79        -7.8300   -0.4300   -4.8110 h1        1 MOL      0.104331
    179 H80        -7.2690    0.0150   -2.5850 hn        1 MOL      0.279520
    180 Ca1        -5.1770    5.4580    0.2210 Ca        1 MOL      1.732749
    181 O27        -4.3680    3.4700   -1.3960 oh        1 MOL     -0.802253
    182 H81        -4.2460    3.4090   -2.3410 ho        1 MOL      0.387252
    183 H82        -3.9010    2.7100   -1.0430 ho        1 MOL      0.387252
    184 O28        -6.8170    6.0340   -1.8450 oh        1 MOL     -0.802253
    185 H83        -6.8400    5.2750   -2.4320 ho        1 MOL      0.387252
    186 H84        -7.5540    6.5730   -2.1320 ho        1 MOL      0.387252
    187 O29        -4.9730    5.9760    2.9460 oh        1 MOL     -0.802253
    188 H85        -5.6290    6.2810    3.5820 ho        1 MOL      0.387252
    189 H86        -4.1340    6.2870    3.2990 ho        1 MOL      0.387252
    190 O30        -7.7310    6.1790    0.8620 oh        1 MOL     -0.802253
    191 H87        -8.2750    5.4010    0.9970 ho        1 MOL      0.387252
    192 H88        -8.0080    6.7960    1.5350 ho        1 MOL      0.387252
    193 O31        -5.2510    8.1680    0.6290 oh        1 MOL     -0.802253
    194 H89        -5.8300    8.4050    1.3510 ho        1 MOL      0.387252
    195 H90        -4.6240    8.8950    0.5710 ho        1 MOL      0.387252
@<TRIPOS>BOND
     1    1    2 1   
     2    1    4 1   
     3    1    5 1   
     4    1    6 1   
     5    2    3 2   
     6    2    7 1   
     7    7    8 1   
     8    7   15 1   
     9    8    9 1   
    10    8   11 1   
    11    8   16 1   
    12    9   10 2   
    13    9   19 1   
    14   11   12 1   
    15   11   17 1   
    16   11   18 1   
    17   12   13 1   
    18   12   14 1   
    19   19   20 1   
    20   19   27 1   
    21   20   21 1   
    22   20   23 1   
    23   20   28 1   
    24   21   22 2   
    25   21   38 1   
    26   23   24 1   
    27   23   25 1   
    28   23   29 1   
    29   24   26 1   
    30   24   30 1   
    31   24   31 1   
    32   25   32 1   
    33   25   33 1   
    34   25   34 1   
    35   26   35 1   
    36   26   36 1   
    37   26   37 1   
    38   38   39 1   
    39   38   46 1   
    40   39   40 1   
    41   39   42 1   
    42   39   47 1   
    43   40   41 2   
    44   40   50 1   
    45   42   43 1   
    46   42   48 1   
    47   42   49 1   
    48   43   44 1   
    49   43   45 1   
    50   50   51 1   
    51   50   54 1   
    52   51   52 1   
    53   51   55 1   
    54   51   56 1   
    55   52   53 2   
    56   52   57 1   
    57   57   58 1   
    58   57   65 1   
    59   58   59 1   
    60   58   61 1   
    61   58   66 1   
    62   59   60 2   
    63   59   69 1   
    64   61   62 1   
    65   61   67 1   
    66   61   68 1   
    67   62   63 1   
    68   62   64 1   
    69   69   70 1   
    70   69   73 1   
    71   70   71 1   
    72   70   74 1   
    73   70   75 1   
    74   71   72 2   
    75   71   76 1   
    76   76   77 1   
    77   76   85 1   
    78   77   78 1   
    79   77   80 1   
    80   77   86 1   
    81   78   79 2   
    82   78   93 1   
    83   80   81 1   
    84   80   87 1   
    85   80   88 1   
    86   81   82 1   
    87   81   89 1   
    88   81   90 1   
    89   82   83 1   
    90   82   84 2   
    91   83   91 1   
    92   83   92 1   
    93   93   94 1   
    94   93  100 1   
    95   94   95 1   
    96   94   97 1   
    97   94  101 1   
    98   95   96 2   
    99   95  109 1   
   100   97   98 1   
   101   97   99 1   
   102   97  102 1   
   103   98  103 1   
   104   98  104 1   
   105   98  105 1   
   106   99  106 1   
   107   99  107 1   
   108   99  108 1   
   109  109  110 1   
   110  109  117 1   
   111  110  111 1   
   112  110  113 1   
   113  110  118 1   
   114  111  112 2   
   115  111  123 1   
   116  113  114 1   
   117  113  119 1   
   118  113  120 1   
   119  114  115 1   
   120  114  116 2   
   121  115  121 1   
   122  115  122 1   
   123  123  124 1   
   124  123  135 1   
   125  124  125 1   
   126  124  127 1   
   127  124  136 1   
   128  125  126 2   
   129  125  144 1   
   130  127  128 1   
   131  127  137 1   
   132  127  138 1   
   133  128  129 ar  
   134  128  130 ar  
   135  129  131 ar  
   136  129  139 1   
   137  130  132 ar  
   138  130  140 1   
   139  131  133 ar  
   140  131  141 1   
   141  132  133 ar  
   142  132  142 1   
   143  133  134 1   
   144  134  143 1   
   145  144  145 1   
   146  144  153 1   
   147  145  146 1   
   148  145  148 1   
   149  145  154 1   
   150  146  147 2   
   151  146  159 1   
   152  148  149 1   
   153  148  155 1   
   154  148  156 1   
   155  149  150 1   
   156  149  157 1   
   157  149  158 1   
   158  150  151 1   
   159  150  152 1   
   160  159  160 1   
   161  159  168 1   
   162  160  161 1   
   163  160  163 1   
   164  160  169 1   
   165  161  162 2   
   166  161  174 1   
   167  163  164 1   
   168  163  170 1   
   169  163  171 1   
   170  164  165 1   
   171  164  172 1   
   172  164  173 1   
   173  165  166 1   
   174  165  167 1   
   175  174  175 1   
   176  174  179 1   
   177  175  176 1   
   178  175  177 1   
   179  175  178 1   
   180  181  182 1   
   181  181  183 1   
   182  184  185 1   
   183  184  186 1   
   184  187  188 1   
   185  187  189 1   
   186  190  191 1   
   187  190  192 1   
   188  193  194 1   
   189  193  195 1   
@<TRIPOS>SUBSTRUCTURE
     1 MOL         1 TEMP              0 ****  ****    0 ROOT
