@<TRIPOS>MOLECULE
MOL
  194   186     1     0     0
SMALL
resp


@<TRIPOS>ATOM
      1 C1          1.1520    1.5570    2.0650 c3        1 MOL     -0.277098
      2 C2          2.5310    1.8820    1.4870 c         1 MOL      0.540868
      3 O1          2.6350    2.7120    0.5410 o         1 MOL     -0.488006
      4 H1          0.4020    2.1900    1.5910 hc        1 MOL      0.076995
      5 H2          0.9160    0.5110    1.8770 hc        1 MOL      0.076995
      6 H3          1.1560    1.7420    3.1400 hc        1 MOL      0.076995
      7 N1          3.5780    1.4410    2.2350 n         1 MOL     -0.482253
      8 C3          5.0120    1.9020    2.2080 c3        1 MOL      0.274142
      9 C4          6.1110    0.8040    1.9850 c         1 MOL      0.230704
     10 O2          7.0590    1.2170    1.2990 o         1 MOL     -0.446877
     11 C5          5.2770    2.6310    3.5320 c3        1 MOL     -0.062377
     12 C6          5.1100    1.7070    4.8080 c         1 MOL      0.555952
     13 O3          4.7150    0.5340    4.6140 o         1 MOL     -0.637898
     14 O4          5.4290    2.1710    5.9120 o         1 MOL     -0.637898
     15 H4          3.3430    0.8190    2.9910 hn        1 MOL      0.229319
     16 H5          5.0740    2.6920    1.4600 h1        1 MOL      0.024147
     17 H6          4.6050    3.4830    3.6640 hc        1 MOL      0.045949
     18 H7          6.2550    3.1210    3.5220 hc        1 MOL      0.045949
     19 N2          6.0230   -0.4720    2.4110 n         1 MOL     -0.172725
     20 C7          7.0240   -1.4670    2.1610 c3        1 MOL      0.312067
     21 C8          7.3890   -1.7440    0.6750 c         1 MOL      0.323593
     22 O5          8.5960   -1.9920    0.4350 o         1 MOL     -0.504543
     23 C9          8.2170   -1.2450    3.1430 c3        1 MOL     -0.429736
     24 C10         7.8820   -0.9160    4.6460 c3        1 MOL      0.273058
     25 C11         7.0560   -1.9570    5.4010 c3        1 MOL     -0.148460
     26 C12         6.6520   -1.5800    6.8730 c3        1 MOL      0.080749
     27 N3          5.4600   -0.8270    6.7700 n4        1 MOL     -0.343795
     28 H8          5.1480   -0.6970    2.8700 hn        1 MOL      0.147198
     29 H9          6.5680   -2.4120    2.4130 h1        1 MOL     -0.011815
     30 H10         8.7270   -0.3180    2.8750 hc        1 MOL      0.125576
     31 H11         8.8910   -2.1010    3.0970 hc        1 MOL      0.125576
     32 H12         7.4820    0.0760    4.8030 hc        1 MOL     -0.019369
     33 H13         8.8340   -0.8120    5.1700 hc        1 MOL     -0.019369
     34 H14         7.6280   -2.8790    5.3900 hc        1 MOL      0.019876
     35 H15         6.1400   -2.0380    4.8060 hc        1 MOL      0.019876
     36 H16         7.4560   -1.0010    7.3280 hx        1 MOL      0.055294
     37 H17         6.4560   -2.4730    7.4650 hx        1 MOL      0.055294
     38 H18         5.4230   -0.2510    7.5950 hn        1 MOL      0.304418
     39 H19         5.4310   -0.4050    5.8510 hn        1 MOL      0.304418
     40 H20         4.6790   -1.4570    6.7090 hn        1 MOL      0.304418
     41 N4          6.4030   -1.7400   -0.2390 n         1 MOL     -0.120676
     42 C13         6.7610   -1.6420   -1.6920 c3        1 MOL      0.000971
     43 C14         6.2950   -0.3600   -2.3890 c         1 MOL      0.560992
     44 O6          6.8980    0.0550   -3.3390 o         1 MOL     -0.515834
     45 C15         6.3690   -2.8580   -2.4700 c3        1 MOL     -0.630554
     46 C16         5.1170   -3.6400   -2.0980 c         1 MOL      0.830465
     47 O7          5.1040   -4.8690   -2.0960 o         1 MOL     -0.710513
     48 O8          4.0720   -3.0390   -1.7040 o         1 MOL     -0.710513
     49 H21         5.4530   -1.7690    0.1050 hn        1 MOL      0.095100
     50 H22         7.8480   -1.6130   -1.7370 h1        1 MOL      0.168531
     51 H23         7.2170   -3.5160   -2.3080 hc        1 MOL      0.171680
     52 H24         6.4440   -2.5880   -3.5220 hc        1 MOL      0.171680
     53 N5          5.4380    0.3990   -1.7740 n         1 MOL     -0.539168
     54 C17         5.0020    1.7190   -2.1230 c3        1 MOL      0.301075
     55 C18         6.0370    2.8230   -1.9260 c         1 MOL      0.555833
     56 O9          7.1950    2.6240   -1.4960 o         1 MOL     -0.489386
     57 H25         4.9210   -0.0050   -1.0110 hn        1 MOL      0.222288
     58 H26         4.1140    2.0590   -1.5710 h1        1 MOL     -0.012172
     59 H27         4.6470    1.6420   -3.1490 h1        1 MOL     -0.012172
     60 N6          5.7070    4.0940   -2.1750 n         1 MOL     -0.648778
     61 C19         4.5030    4.5870   -2.9430 c3        1 MOL      0.418066
     62 C20         3.8510    5.7780   -2.2140 c         1 MOL      0.478670
     63 O10         4.6070    6.7080   -2.0440 o         1 MOL     -0.529522
     64 C21         4.9060    4.8710   -4.4160 c3        1 MOL     -0.479604
     65 C22         5.3910    3.7010   -5.2240 c         1 MOL      0.717458
     66 N7          4.4300    2.8380   -5.6370 n         1 MOL     -0.820213
     67 O11         6.5630    3.4930   -5.5170 o         1 MOL     -0.504591
     68 H28         6.3700    4.8390   -2.0050 hn        1 MOL      0.353492
     69 H29         3.7530    3.8010   -3.0490 h1        1 MOL     -0.060914
     70 H30         5.7060    5.6110   -4.3640 hc        1 MOL      0.117984
     71 H31         4.1300    5.4710   -4.8960 hc        1 MOL      0.117984
     72 H32         3.4690    3.0940   -5.4840 hn        1 MOL      0.365705
     73 H33         4.7150    1.9500   -6.0190 hn        1 MOL      0.365705
     74 N8          2.5560    5.8470   -1.8530 n         1 MOL     -0.406007
     75 C23         1.4330    4.9720   -1.8930 c3        1 MOL     -0.057176
     76 C24         0.4020    5.2790   -0.8270 c         1 MOL      0.652188
     77 O12         0.7560    5.5280    0.3350 o         1 MOL     -0.534616
     78 H34         2.2660    6.7630   -1.5400 hn        1 MOL      0.286347
     79 H35         1.6960    3.9100   -1.8290 h1        1 MOL      0.037444
     80 H36         0.9000    5.2090   -2.8110 h1        1 MOL      0.037444
     81 N9         -0.8500    5.1530   -1.2000 n         1 MOL     -0.549660
     82 C25        -2.0170    5.4890   -0.3120 c3        1 MOL      0.054385
     83 C26        -2.8250    4.1940   -0.1370 c         1 MOL      0.677747
     84 O13        -2.5060    3.1390   -0.7130 o         1 MOL     -0.540869
     85 C27        -2.9100    6.6060   -1.0520 c3        1 MOL     -0.066680
     86 C28        -4.0520    7.1860   -0.3010 ca        1 MOL     -0.004350
     87 C29        -5.4130    6.9160   -0.6990 ca        1 MOL     -0.060015
     88 C30        -3.8170    7.9840    0.8360 ca        1 MOL     -0.060015
     89 C31        -6.4800    7.5710   -0.0680 ca        1 MOL     -0.365699
     90 C32        -4.8850    8.6410    1.4400 ca        1 MOL     -0.365699
     91 C33        -6.2180    8.4800    0.9690 ca        1 MOL      0.413505
     92 O14        -7.2060    9.2170    1.5870 oh        1 MOL     -0.468288
     93 H37        -1.1490    4.9460   -2.1350 hn        1 MOL      0.301184
     94 H38        -1.7550    5.9010    0.6560 h1        1 MOL      0.073497
     95 H39        -3.1630    6.2710   -2.0590 hc        1 MOL      0.049399
     96 H40        -2.3620    7.5000   -1.3300 hc        1 MOL      0.049399
     97 H41        -5.5420    6.2940   -1.5760 ha        1 MOL      0.116792
     98 H42        -2.8440    8.1400    1.2840 ha        1 MOL      0.116792
     99 H43        -7.4520    7.4020   -0.4950 ha        1 MOL      0.180287
    100 H44        -4.6750    9.3960    2.1860 ha        1 MOL      0.180287
    101 H45        -6.7720    9.5280    2.3810 ho        1 MOL      0.334908
    102 N10        -3.8870    4.2250    0.7240 n         1 MOL     -0.560342
    103 C34        -4.7440    3.0850    0.9010 c3        1 MOL     -0.255816
    104 C35        -5.6210    2.7170   -0.2980 c         1 MOL      0.724596
    105 O15        -5.9440    3.5430   -1.1720 o         1 MOL     -0.528456
    106 C36        -5.7170    3.2680    2.1360 c3        1 MOL      0.150898
    107 C37        -4.9400    3.3290    3.4570 c3        1 MOL      0.188538
    108 C38        -6.7410    4.4570    1.8790 c3        1 MOL     -0.191637
    109 C39        -5.9010    3.3260    4.6530 c3        1 MOL     -0.250946
    110 H46        -4.1490    5.0860    1.1880 hn        1 MOL      0.285917
    111 H47        -4.0970    2.2360    1.1110 h1        1 MOL      0.124546
    112 H48        -6.3170    2.3720    2.2180 hc        1 MOL      0.007408
    113 H49        -4.3550    4.2520    3.5260 hc        1 MOL     -0.021367
    114 H50        -4.2720    2.4790    3.5670 hc        1 MOL     -0.021367
    115 H51        -7.2550    4.3030    0.9260 hc        1 MOL      0.061883
    116 H52        -7.5040    4.5420    2.6550 hc        1 MOL      0.061883
    117 H53        -6.1410    5.3640    1.8330 hc        1 MOL      0.061883
    118 H54        -6.4120    4.2760    4.4870 hc        1 MOL      0.049600
    119 H55        -6.5650    2.4620    4.6400 hc        1 MOL      0.049600
    120 H56        -5.2870    3.3200    5.5520 hc        1 MOL      0.049600
    121 N11        -5.9420    1.4230   -0.3380 n         1 MOL     -0.542862
    122 C40        -6.6740    0.8430   -1.4690 c3        1 MOL      0.044967
    123 C41        -6.2880   -0.5860   -1.7750 c         1 MOL      0.660142
    124 O16        -6.0370   -1.3730   -0.8400 o         1 MOL     -0.525477
    125 C42        -8.1740    0.9980   -1.2370 c3        1 MOL      0.134260
    126 O17        -8.5670    0.5620    0.0940 oh        1 MOL     -0.595640
    127 H57        -5.7600    0.8140    0.4460 hn        1 MOL      0.306526
    128 H58        -6.4970    1.4150   -2.3740 h1        1 MOL      0.041809
    129 H59        -8.6600    0.4320   -2.0350 h1        1 MOL      0.024624
    130 H60        -8.4540    2.0470   -1.3220 h1        1 MOL      0.024624
    131 H61        -9.5250    0.5350    0.1760 ho        1 MOL      0.407591
    132 N12        -6.3140   -1.0630   -3.0030 n         1 MOL     -0.639855
    133 C43        -5.8340   -2.3390   -3.3900 c3        1 MOL      0.241616
    134 C44        -6.3100   -3.5910   -2.6580 c         1 MOL      0.475979
    135 O18        -5.5130   -4.5250   -2.5720 o         1 MOL     -0.455019
    136 C45        -4.3770   -2.2170   -3.7270 c3        1 MOL     -0.348634
    137 H62        -6.6000   -0.4540   -3.7620 hn        1 MOL      0.343534
    138 H63        -6.2100   -2.3800   -4.4210 h1        1 MOL      0.045991
    139 H64        -3.8630   -3.1670   -3.8430 hc        1 MOL      0.104506
    140 H65        -4.2430   -1.5410   -4.5750 hc        1 MOL      0.104506
    141 H66        -3.9280   -1.8370   -2.8160 hc        1 MOL      0.104506
    142 N13        -7.5250   -3.5860   -2.1260 n         1 MOL     -0.743175
    143 C46        -8.1030   -4.6450   -1.2880 c3        1 MOL      0.595288
    144 C47        -7.1510   -5.2490   -0.1980 c         1 MOL      0.265892
    145 O19        -7.3560   -6.3910    0.2670 o         1 MOL     -0.453359
    146 C48        -8.8260   -5.6930   -2.1030 c3        1 MOL     -0.447854
    147 H67        -8.1180   -2.7680   -2.2050 hn        1 MOL      0.361807
    148 H68        -8.8980   -4.1740   -0.7040 h1        1 MOL     -0.051188
    149 H69        -9.5890   -5.1290   -2.6420 hc        1 MOL      0.115349
    150 H70        -8.0630   -6.0500   -2.7860 hc        1 MOL      0.115349
    151 H71        -9.2300   -6.4540   -1.4400 hc        1 MOL      0.115349
    152 N14        -6.0600   -4.5270    0.2390 n         1 MOL     -0.369759
    153 C49        -5.2150   -4.9210    1.3440 c3        1 MOL     -0.066604
    154 C50        -6.0040   -5.1240    2.6220 c         1 MOL      0.464316
    155 O20        -6.0080   -6.1850    3.2340 o         1 MOL     -0.476875
    156 C51        -3.9930   -3.9670    1.4690 c3        1 MOL      0.223161
    157 C52        -2.7810   -4.4700    2.2930 c3        1 MOL     -0.443079
    158 C53        -2.1280   -5.6970    1.6970 c         1 MOL      0.745589
    159 O21        -0.9090   -5.6230    1.3670 o         1 MOL     -0.718245
    160 O22        -2.7340   -6.8340    1.7310 o         1 MOL     -0.718245
    161 H72        -5.9420   -3.5880   -0.1210 hn        1 MOL      0.226501
    162 H73        -4.7980   -5.8880    1.0740 h1        1 MOL      0.211692
    163 H74        -4.4000   -3.1350    2.0510 hc        1 MOL     -0.053069
    164 H75        -3.7110   -3.5380    0.5110 hc        1 MOL     -0.053069
    165 H76        -3.1450   -4.7730    3.2680 hc        1 MOL      0.104148
    166 H77        -2.0900   -3.6270    2.3680 hc        1 MOL      0.104148
    167 N15        -6.5590   -4.0660    3.2420 n         1 MOL     -0.322871
    168 C54        -7.2650   -4.2240    4.5130 c3        1 MOL      0.008852
    169 H78        -8.2530   -3.7710    4.4380 h1        1 MOL      0.039859
    170 H79        -7.3680   -5.2850    4.7420 h1        1 MOL      0.039859
    171 H80        -6.7000   -3.7340    5.3070 h1        1 MOL      0.039859
    172 H81        -6.4880   -3.1380    2.8550 hn        1 MOL      0.237427
    173 Ca1         2.4390   -5.2610   -1.6740 Ca        1 MOL      1.768548
    174 O23         0.9120   -6.7110   -0.0930 oh        1 MOL     -0.849149
    175 H82         0.3050   -6.3050    0.5090 ho        1 MOL      0.419680
    176 H83         0.4420   -7.4720   -0.4480 ho        1 MOL      0.419680
    177 O24         0.7700   -3.2150   -1.0920 oh        1 MOL     -0.849149
    178 H84         0.5520   -2.3530   -1.4650 ho        1 MOL      0.419680
    179 H85         0.5530   -3.1350   -0.1660 ho        1 MOL      0.419680
    180 O25         2.7120   -6.8540   -3.7500 oh        1 MOL     -0.849149
    181 H86         2.7060   -6.6110   -4.6790 ho        1 MOL      0.419680
    182 H87         2.1260   -7.6040   -3.6960 ho        1 MOL      0.419680
    183 O26         2.6430   -3.9910   -4.0320 oh        1 MOL     -0.849149
    184 H88         2.9210   -3.0690   -3.9450 ho        1 MOL      0.419680
    185 H89         2.9610   -4.2530   -4.9000 ho        1 MOL      0.419680
    186 O27         0.0220   -5.9780   -2.7440 oh        1 MOL     -0.849149
    187 H90        -0.7620   -6.2330   -2.2410 ho        1 MOL      0.419680
    188 H91        -0.3190   -5.4460   -3.4560 ho        1 MOL      0.419680
    189 O28         3.1440   -4.5660    0.8300 oh        1 MOL     -0.849149
    190 H92         3.8630   -4.4850    1.4530 ho        1 MOL      0.419680
    191 H93         2.3560   -4.3620    1.3430 ho        1 MOL      0.419680
    192 O29         3.7380   -7.5820   -1.0250 oh        1 MOL     -0.849149
    193 H94         3.7190   -7.9480   -0.1430 ho        1 MOL      0.419680
    194 H95         4.1470   -8.2560   -1.5630 ho        1 MOL      0.419680
@<TRIPOS>BOND
     1    1    2 1   
     2    1    4 1   
     3    1    5 1   
     4    1    6 1   
     5    2    3 2   
     6    2    7 1   
     7    7    8 1   
     8    7   15 1   
     9    8    9 1   
    10    8   11 1   
    11    8   16 1   
    12    9   10 2   
    13    9   19 1   
    14   11   12 1   
    15   11   17 1   
    16   11   18 1   
    17   12   13 1   
    18   12   14 1   
    19   19   20 1   
    20   19   28 1   
    21   20   21 1   
    22   20   23 1   
    23   20   29 1   
    24   21   22 2   
    25   21   41 1   
    26   23   24 1   
    27   23   30 1   
    28   23   31 1   
    29   24   25 1   
    30   24   32 1   
    31   24   33 1   
    32   25   26 1   
    33   25   34 1   
    34   25   35 1   
    35   26   27 1   
    36   26   36 1   
    37   26   37 1   
    38   27   38 1   
    39   27   39 1   
    40   27   40 1   
    41   41   42 1   
    42   41   49 1   
    43   42   43 1   
    44   42   45 1   
    45   42   50 1   
    46   43   44 2   
    47   43   53 1   
    48   45   46 1   
    49   45   51 1   
    50   45   52 1   
    51   46   47 1   
    52   46   48 1   
    53   53   54 1   
    54   53   57 1   
    55   54   55 1   
    56   54   58 1   
    57   54   59 1   
    58   55   56 2   
    59   55   60 1   
    60   60   61 1   
    61   60   68 1   
    62   61   62 1   
    63   61   64 1   
    64   61   69 1   
    65   62   63 2   
    66   62   74 1   
    67   64   65 1   
    68   64   70 1   
    69   64   71 1   
    70   65   66 1   
    71   65   67 2   
    72   66   72 1   
    73   66   73 1   
    74   74   75 1   
    75   74   78 1   
    76   75   76 1   
    77   75   79 1   
    78   75   80 1   
    79   76   77 2   
    80   76   81 1   
    81   81   82 1   
    82   81   93 1   
    83   82   83 1   
    84   82   85 1   
    85   82   94 1   
    86   83   84 2   
    87   83  102 1   
    88   85   86 1   
    89   85   95 1   
    90   85   96 1   
    91   86   87 ar  
    92   86   88 ar  
    93   87   89 ar  
    94   87   97 1   
    95   88   90 ar  
    96   88   98 1   
    97   89   91 ar  
    98   89   99 1   
    99   90   91 ar  
   100   90  100 1   
   101   91   92 1   
   102   92  101 1   
   103  102  103 1   
   104  102  110 1   
   105  103  104 1   
   106  103  106 1   
   107  103  111 1   
   108  104  105 2   
   109  104  121 1   
   110  106  107 1   
   111  106  108 1   
   112  106  112 1   
   113  107  109 1   
   114  107  113 1   
   115  107  114 1   
   116  108  115 1   
   117  108  116 1   
   118  108  117 1   
   119  109  118 1   
   120  109  119 1   
   121  109  120 1   
   122  121  122 1   
   123  121  127 1   
   124  122  123 1   
   125  122  125 1   
   126  122  128 1   
   127  123  124 2   
   128  123  132 1   
   129  125  126 1   
   130  125  129 1   
   131  125  130 1   
   132  126  131 1   
   133  132  133 1   
   134  132  137 1   
   135  133  134 1   
   136  133  136 1   
   137  133  138 1   
   138  134  135 2   
   139  134  142 1   
   140  136  139 1   
   141  136  140 1   
   142  136  141 1   
   143  142  143 1   
   144  142  147 1   
   145  143  144 1   
   146  143  146 1   
   147  143  148 1   
   148  144  145 2   
   149  144  152 1   
   150  146  149 1   
   151  146  150 1   
   152  146  151 1   
   153  152  153 1   
   154  152  161 1   
   155  153  154 1   
   156  153  156 1   
   157  153  162 1   
   158  154  155 2   
   159  154  167 1   
   160  156  157 1   
   161  156  163 1   
   162  156  164 1   
   163  157  158 1   
   164  157  165 1   
   165  157  166 1   
   166  158  159 1   
   167  158  160 1   
   168  167  168 1   
   169  167  172 1   
   170  168  169 1   
   171  168  170 1   
   172  168  171 1   
   173  174  175 1   
   174  174  176 1   
   175  177  178 1   
   176  177  179 1   
   177  180  181 1   
   178  180  182 1   
   179  183  184 1   
   180  183  185 1   
   181  186  187 1   
   182  186  188 1   
   183  189  190 1   
   184  189  191 1   
   185  192  193 1   
   186  192  194 1   
@<TRIPOS>SUBSTRUCTURE
     1 MOL         1 TEMP              0 ****  ****    0 ROOT
