@<TRIPOS>MOLECULE
MOL
  182   178     1     0     0
SMALL
resp


@<TRIPOS>ATOM
      1 C1          0.5980   -3.9310    6.2910 c3        1 MOL     -0.390058
      2 C2          0.4840   -3.7270    4.8100 c         1 MOL      0.789578
      3 O1         -0.5590   -3.6310    4.2600 o         1 MOL     -0.586283
      4 H1          0.5320   -4.9950    6.5180 hc        1 MOL      0.099771
      5 H2          1.5570   -3.5450    6.6380 hc        1 MOL      0.099771
      6 H3         -0.2110   -3.4010    6.7950 hc        1 MOL      0.099771
      7 N1          1.6630   -3.5460    4.2050 n         1 MOL     -0.573267
      8 C3          1.8280   -3.0790    2.8350 c3        1 MOL     -0.150392
      9 C4          1.9160   -4.3060    1.8840 c         1 MOL      0.574313
     10 O2          2.7340   -5.2070    2.1850 o         1 MOL     -0.515471
     11 C5          3.0840   -2.1080    2.8300 c3        1 MOL     -0.084559
     12 C6          3.3110   -1.4090    1.5100 c         1 MOL      0.311911
     13 O3          3.9540   -0.3400    1.3620 o         1 MOL     -0.568781
     14 O4          2.7420   -1.8180    0.4420 o         1 MOL     -0.568781
     15 H4          2.4940   -3.5580    4.7690 hn        1 MOL      0.323292
     16 H5          0.9320   -2.5040    2.5930 h1        1 MOL      0.078350
     17 H6          3.9820   -2.6080    3.1890 hc        1 MOL      0.094401
     18 H7          2.9250   -1.3240    3.5820 hc        1 MOL      0.094401
     19 N2          1.1630   -4.3350    0.7460 n         1 MOL     -0.378323
     20 C7          1.1540   -5.5250   -0.1690 c3        1 MOL     -0.029810
     21 C8          2.4880   -5.6550   -0.9440 c         1 MOL      0.437539
     22 O5          3.0410   -6.7160   -1.1400 o         1 MOL     -0.548004
     23 C9         -0.0560   -5.3880   -1.1360 c3        1 MOL      0.041571
     24 C10        -0.6380   -6.7240   -1.6690 c3        1 MOL      0.040463
     25 C11        -2.0020   -6.6220   -2.4810 c3        1 MOL     -0.096438
     26 C12        -2.3990   -7.8080   -3.2930 c3        1 MOL      0.123967
     27 N3         -3.6940   -7.5120   -3.9580 n4        1 MOL     -0.217594
     28 H8          0.5340   -3.5480    0.6830 hn        1 MOL      0.393137
     29 H9          0.9620   -6.4660    0.3440 h1        1 MOL      0.079028
     30 H10         0.2760   -4.8260   -2.0010 hc        1 MOL      0.004048
     31 H11        -0.9030   -4.9580   -0.5890 hc        1 MOL      0.004048
     32 H12        -0.8870   -7.3680   -0.8190 hc        1 MOL      0.019790
     33 H13         0.0320   -7.2340   -2.3580 hc        1 MOL      0.019790
     34 H14        -1.7580   -5.7940   -3.1430 hc        1 MOL      0.033900
     35 H15        -2.7280   -6.4030   -1.7030 hc        1 MOL      0.033900
     36 H16        -2.4530   -8.7310   -2.7050 hx        1 MOL      0.054312
     37 H17        -1.6690   -7.9070   -4.0930 hx        1 MOL      0.054312
     38 H18        -3.7940   -8.2910   -4.5920 hn        1 MOL      0.260928
     39 H19        -4.4340   -7.3100   -3.3140 hn        1 MOL      0.260928
     40 H20        -3.5700   -6.6880   -4.5320 hn        1 MOL      0.260928
     41 N4          3.0560   -4.5510   -1.3660 n         1 MOL     -0.228812
     42 C13         4.3490   -4.5290   -2.0640 c3        1 MOL      0.186524
     43 C14         5.5490   -4.3760   -1.1180 c         1 MOL      0.475134
     44 O6          6.6400   -4.8630   -1.2840 o         1 MOL     -0.540023
     45 C15         4.3300   -3.4110   -3.0980 c3        1 MOL     -0.676033
     46 C16         3.7400   -2.0840   -2.7630 c         1 MOL      0.874227
     47 O7          4.4080   -1.3890   -1.9420 o         1 MOL     -0.755332
     48 O8          2.5630   -1.7580   -3.1420 o         1 MOL     -0.755332
     49 H21         2.5880   -3.7200   -1.0450 hn        1 MOL      0.184689
     50 H22         4.6190   -5.4820   -2.5110 h1        1 MOL      0.080540
     51 H23         3.8170   -3.7510   -3.9870 hc        1 MOL      0.175456
     52 H24         5.3970   -3.2700   -3.2730 hc        1 MOL      0.175456
     53 N5          5.3210   -3.5800   -0.0250 n         1 MOL     -0.128913
     54 C17         6.2860   -3.0980    0.9350 c3        1 MOL     -0.236781
     55 C18         6.8820   -1.7280    0.7480 c         1 MOL      0.558135
     56 O9          7.6870   -1.3500    1.6210 o         1 MOL     -0.572534
     57 H25         4.3920   -3.1850    0.0060 hn        1 MOL      0.075507
     58 H26         7.1590   -3.7390    0.9220 h1        1 MOL      0.133862
     59 H27         5.8430   -3.1320    1.9230 h1        1 MOL      0.133862
     60 N6          6.6080   -1.0490   -0.3620 n         1 MOL     -0.184505
     61 C19         7.3360    0.2420   -0.6560 c3        1 MOL     -0.037081
     62 C20         6.4720    1.5000   -0.4350 c         1 MOL      0.472371
     63 O10         5.3100    1.5450   -0.7960 o         1 MOL     -0.512076
     64 C21         7.8380    0.1770   -2.1120 c3        1 MOL     -0.382898
     65 C22         8.3390    1.5250   -2.6280 c         1 MOL      0.672576
     66 N7          7.6710    2.2520   -3.4510 n         1 MOL     -0.718501
     67 O11         9.4930    1.9280   -2.3640 o         1 MOL     -0.581785
     68 H28         6.0820   -1.4210   -1.1280 hn        1 MOL      0.210725
     69 H29         8.1740    0.2620    0.0390 h1        1 MOL      0.092719
     70 H30         7.1020   -0.2290   -2.8000 hc        1 MOL      0.145229
     71 H31         8.6800   -0.5160   -2.0820 hc        1 MOL      0.145229
     72 H32         6.7200    2.1220   -3.7520 hn        1 MOL      0.343729
     73 H33         8.1460    3.0840   -3.7790 hn        1 MOL      0.343729
     74 N8          6.9890    2.6200    0.0220 n         1 MOL     -0.339358
     75 C23         6.3460    3.8750   -0.1560 c3        1 MOL     -0.092027
     76 C24         5.1020    4.1110    0.7150 c         1 MOL      0.557218
     77 O12         5.1700    4.0540    1.9490 o         1 MOL     -0.496169
     78 H34         7.9630    2.6940    0.2940 hn        1 MOL      0.314674
     79 H35         6.0550    3.9900   -1.2040 h1        1 MOL      0.064842
     80 H36         7.0820    4.6520    0.0560 h1        1 MOL      0.064842
     81 N9          3.9600    4.4990    0.1260 n         1 MOL     -0.495654
     82 C25         2.7060    4.6220    0.8630 c3        1 MOL      0.212000
     83 C26         2.2520    3.1930    1.2460 c         1 MOL      0.481301
     84 O13         2.7380    2.1500    0.7770 o         1 MOL     -0.469938
     85 C27         1.6400    5.2810    0.0210 c3        1 MOL     -0.129487
     86 C28         2.0440    6.6080   -0.6240 ca        1 MOL      0.108708
     87 C29         1.5880    6.9220   -1.8670 ca        1 MOL     -0.201752
     88 C30         2.7840    7.5260    0.1350 ca        1 MOL     -0.201752
     89 C31         1.8720    8.2320   -2.3610 ca        1 MOL     -0.251159
     90 C32         3.1940    8.7630   -0.3940 ca        1 MOL     -0.251159
     91 C33         2.6710    9.0820   -1.6150 ca        1 MOL      0.331128
     92 O14         2.9410   10.3290   -2.1430 oh        1 MOL     -0.449350
     93 H37         3.9960    4.6460   -0.8700 hn        1 MOL      0.272740
     94 H38         2.9650    5.2660    1.7000 h1        1 MOL      0.063202
     95 H39         0.7180    5.5110    0.5590 hc        1 MOL      0.042673
     96 H40         1.4120    4.6890   -0.8580 hc        1 MOL      0.042673
     97 H41         1.0250    6.2120   -2.4480 ha        1 MOL      0.139489
     98 H42         2.9830    7.3000    1.1700 ha        1 MOL      0.139489
     99 H43         1.4680    8.4250   -3.3420 ha        1 MOL      0.170443
    100 H44         3.5950    9.5180    0.2590 ha        1 MOL      0.170443
    101 H45         2.5150   10.3640   -3.0060 ho        1 MOL      0.321799
    102 N10         1.1720    3.1600    2.0460 n         1 MOL     -0.681692
    103 C34         0.5890    2.0000    2.7520 c3        1 MOL      0.144522
    104 C35         0.0370    0.9850    1.7430 c         1 MOL      0.401131
    105 O15         0.7800    0.2560    1.1630 o         1 MOL     -0.115039
    106 C36         1.6240    1.4000    3.6840 c3        1 MOL      0.203491
    107 C37         0.9290    0.4470    4.6580 c3        1 MOL     -0.229494
    108 C38         2.3230    2.5480    4.5100 c3        1 MOL     -0.285707
    109 C39        -0.0160    1.1320    5.6660 c3        1 MOL     -0.125931
    110 H46         0.7330    4.0450    2.2950 hn        1 MOL      0.315177
    111 H47        -0.2000    2.3630    3.4220 h1        1 MOL      0.062144
    112 H48         2.4300    0.9030    3.1540 hc        1 MOL      0.022103
    113 H49         1.7140   -0.0530    5.2280 hc        1 MOL      0.076842
    114 H50         0.3950   -0.3580    4.1450 hc        1 MOL      0.076842
    115 H51         2.7980    2.1260    5.4010 hc        1 MOL      0.079821
    116 H52         3.0600    3.1330    3.9410 hc        1 MOL      0.079821
    117 H53         1.5750    3.2050    4.9430 hc        1 MOL      0.079821
    118 H54        -0.4590    0.3960    6.3450 hc        1 MOL      0.043407
    119 H55         0.3650    1.8500    6.3840 hc        1 MOL      0.043407
    120 H56        -0.8940    1.5350    5.1550 hc        1 MOL      0.043407
    121 N11        -1.2700    0.8230    1.7240 n         1 MOL     -0.483999
    122 C40        -1.9430   -0.1310    0.7870 c3        1 MOL     -0.010159
    123 C41        -3.5200    0.0490    0.8320 c         1 MOL      0.577519
    124 O16        -4.1650   -0.3810    1.8050 o         1 MOL     -0.524465
    125 C42        -1.6440   -1.5590    1.2270 c3        1 MOL      0.165370
    126 O17        -0.6090   -2.0810    0.4120 oh        1 MOL     -0.575858
    127 H57        -1.8620    1.5640    2.0800 hn        1 MOL      0.305387
    128 H58        -1.6200    0.0920   -0.2260 h1        1 MOL      0.080707
    129 H59        -2.5520   -2.1610    1.1700 h1        1 MOL      0.086159
    130 H60        -1.3790   -1.5740    2.2870 h1        1 MOL      0.086159
    131 H61         0.1470   -1.5000    0.4960 ho        1 MOL      0.010037
    132 N12        -4.1540    0.6120   -0.2130 n         1 MOL     -0.547791
    133 C43        -5.5860    0.8150   -0.1990 c3        1 MOL      0.111482
    134 C44        -5.9870    1.2930   -1.6640 c         1 MOL      0.664943
    135 O18        -5.3730    2.1340   -2.2360 o         1 MOL     -0.575305
    136 C45        -6.0120    1.9230    0.8060 c3        1 MOL     -0.341924
    137 H62        -3.6530    0.8040   -1.0660 hn        1 MOL      0.264214
    138 H63        -6.1260   -0.0840    0.0790 h1        1 MOL      0.090125
    139 H64        -5.4160    1.8070    1.7090 hc        1 MOL      0.112701
    140 H65        -5.8610    2.8860    0.3350 hc        1 MOL      0.112701
    141 H66        -7.0820    1.8170    1.0110 hc        1 MOL      0.112701
    142 N13        -7.1010    0.8740   -2.2170 n         1 MOL     -0.621553
    143 C46        -8.2090    0.0820   -1.5580 c3        1 MOL      0.157467
    144 C47        -9.5250    0.6060   -2.0350 c         1 MOL      0.332214
    145 O19        -9.6420    0.9590   -3.2230 o         1 MOL     -0.512709
    146 C48        -8.0540   -1.3590   -2.0280 c3        1 MOL     -0.102594
    147 H67        -7.3620    1.2740   -3.1080 hn        1 MOL      0.348272
    148 H68        -8.1230    0.0910   -0.4780 h1        1 MOL      0.047024
    149 H69        -8.4680   -1.5040   -3.0220 hc        1 MOL      0.034429
    150 H70        -7.0320   -1.7610   -1.9820 hc        1 MOL      0.034429
    151 H71        -8.6160   -2.0620   -1.4190 hc        1 MOL      0.034429
    152 N14       -10.5670    0.5590   -1.1880 n         1 MOL     -0.016172
    153 C49       -10.5700    0.1360    0.1340 c3        1 MOL     -0.399781
    154 C50       -10.2170    1.1790    1.2430 c         1 MOL      0.627384
    155 O20        -9.7930    0.7440    2.3280 o         1 MOL     -0.569149
    156 C51       -11.9050   -0.5600    0.4500 c3        1 MOL      0.091844
    157 C52       -13.0680    0.4810    0.6650 c3        1 MOL     -0.128305
    158 C53       -13.8080    0.7430   -0.6560 c         1 MOL      0.604487
    159 O21       -15.0240    0.4470   -0.6640 o         1 MOL     -0.616085
    160 O22       -13.1580    0.9920   -1.7360 o         1 MOL     -0.616085
    161 H72       -11.4960    0.7810   -1.5180 hn        1 MOL      0.146742
    162 H73        -9.8960   -0.7240    0.1530 h1        1 MOL      0.081633
    163 H74       -11.9230   -1.1850    1.3390 hc        1 MOL      0.037409
    164 H75       -12.0830   -1.1780   -0.4350 hc        1 MOL      0.037409
    165 H76       -12.6530    1.3520    1.1680 hc        1 MOL      0.012902
    166 H77       -13.6140   -0.0710    1.4280 hc        1 MOL      0.012902
    167 N15       -10.0750    2.4300    0.9150 n         1 MOL     -0.269385
    168 C54        -9.3720    3.4120    1.7710 c3        1 MOL     -0.183536
    169 H78        -9.5610    4.4180    1.3990 h1        1 MOL      0.094482
    170 H79        -9.7370    3.3290    2.7950 h1        1 MOL      0.094482
    171 H80        -8.3010    3.2120    1.7500 h1        1 MOL      0.094482
    172 H81       -10.5280    2.6740    0.0450 hn        1 MOL      0.217295
    173 Ca1         2.9050    0.2710   -0.9950 Ca        1 MOL      1.746409
    174 O23         0.5790   -0.7350   -1.7550 oh        1 MOL     -0.870261
    175 H82         0.9510   -1.3670   -2.3760 ho        1 MOL      0.422316
    176 H83        -0.1970   -1.1810   -1.4110 ho        1 MOL      0.422316
    177 O24         3.4490    1.7110   -3.1590 oh        1 MOL     -0.870261
    178 H84         3.1470    1.5910   -4.0590 ho        1 MOL      0.422316
    179 H85         3.6990    2.6340   -3.1070 ho        1 MOL      0.422316
    180 O25         0.8760    1.9430   -1.7870 oh        1 MOL     -0.870261
    181 H86        -0.0510    1.7600   -1.6050 ho        1 MOL      0.422316
    182 H87         0.9130    2.0510   -2.7300 ho        1 MOL      0.422316
@<TRIPOS>BOND
     1    1    2 1   
     2    1    4 1   
     3    1    5 1   
     4    1    6 1   
     5    2    3 2   
     6    2    7 1   
     7    7    8 1   
     8    7   15 1   
     9    8    9 1   
    10    8   11 1   
    11    8   16 1   
    12    9   10 2   
    13    9   19 1   
    14   11   12 1   
    15   11   17 1   
    16   11   18 1   
    17   12   13 1   
    18   12   14 1   
    19   19   20 1   
    20   19   28 1   
    21   20   21 1   
    22   20   23 1   
    23   20   29 1   
    24   21   22 2   
    25   21   41 1   
    26   23   24 1   
    27   23   30 1   
    28   23   31 1   
    29   24   25 1   
    30   24   32 1   
    31   24   33 1   
    32   25   26 1   
    33   25   34 1   
    34   25   35 1   
    35   26   27 1   
    36   26   36 1   
    37   26   37 1   
    38   27   38 1   
    39   27   39 1   
    40   27   40 1   
    41   41   42 1   
    42   41   49 1   
    43   42   43 1   
    44   42   45 1   
    45   42   50 1   
    46   43   44 2   
    47   43   53 1   
    48   45   46 1   
    49   45   51 1   
    50   45   52 1   
    51   46   47 1   
    52   46   48 1   
    53   53   54 1   
    54   53   57 1   
    55   54   55 1   
    56   54   58 1   
    57   54   59 1   
    58   55   56 2   
    59   55   60 1   
    60   60   61 1   
    61   60   68 1   
    62   61   62 1   
    63   61   64 1   
    64   61   69 1   
    65   62   63 2   
    66   62   74 1   
    67   64   65 1   
    68   64   70 1   
    69   64   71 1   
    70   65   66 1   
    71   65   67 2   
    72   66   72 1   
    73   66   73 1   
    74   74   75 1   
    75   74   78 1   
    76   75   76 1   
    77   75   79 1   
    78   75   80 1   
    79   76   77 2   
    80   76   81 1   
    81   81   82 1   
    82   81   93 1   
    83   82   83 1   
    84   82   85 1   
    85   82   94 1   
    86   83   84 2   
    87   83  102 1   
    88   85   86 1   
    89   85   95 1   
    90   85   96 1   
    91   86   87 ar  
    92   86   88 ar  
    93   87   89 ar  
    94   87   97 1   
    95   88   90 ar  
    96   88   98 1   
    97   89   91 ar  
    98   89   99 1   
    99   90   91 ar  
   100   90  100 1   
   101   91   92 1   
   102   92  101 1   
   103  102  103 1   
   104  102  110 1   
   105  103  104 1   
   106  103  106 1   
   107  103  111 1   
   108  104  105 2   
   109  104  121 1   
   110  106  107 1   
   111  106  108 1   
   112  106  112 1   
   113  107  109 1   
   114  107  113 1   
   115  107  114 1   
   116  108  115 1   
   117  108  116 1   
   118  108  117 1   
   119  109  118 1   
   120  109  119 1   
   121  109  120 1   
   122  121  122 1   
   123  121  127 1   
   124  122  123 1   
   125  122  125 1   
   126  122  128 1   
   127  123  124 2   
   128  123  132 1   
   129  125  126 1   
   130  125  129 1   
   131  125  130 1   
   132  126  131 1   
   133  132  133 1   
   134  132  137 1   
   135  133  134 1   
   136  133  136 1   
   137  133  138 1   
   138  134  135 2   
   139  134  142 1   
   140  136  139 1   
   141  136  140 1   
   142  136  141 1   
   143  142  143 1   
   144  142  147 1   
   145  143  144 1   
   146  143  146 1   
   147  143  148 1   
   148  144  145 2   
   149  144  152 1   
   150  146  149 1   
   151  146  150 1   
   152  146  151 1   
   153  152  153 1   
   154  152  161 1   
   155  153  154 1   
   156  153  156 1   
   157  153  162 1   
   158  154  155 2   
   159  154  167 1   
   160  156  157 1   
   161  156  163 1   
   162  156  164 1   
   163  157  158 1   
   164  157  165 1   
   165  157  166 1   
   166  158  159 1   
   167  158  160 1   
   168  167  168 1   
   169  167  172 1   
   170  168  169 1   
   171  168  170 1   
   172  168  171 1   
   173  174  175 1   
   174  174  176 1   
   175  177  178 1   
   176  177  179 1   
   177  180  181 1   
   178  180  182 1   
@<TRIPOS>SUBSTRUCTURE
     1 MOL         1 TEMP              0 ****  ****    0 ROOT
