@<TRIPOS>MOLECULE
MOL
  192   187     1     0     0
SMALL
resp


@<TRIPOS>ATOM
      1 C1        -12.6050    4.6250    2.5000 c3        1 MOL     -0.409882
      2 C2        -12.2360    3.1580    2.1440 c         1 MOL      0.607869
      3 O1        -12.9970    2.2200    2.3910 o         1 MOL     -0.556404
      4 H1        -13.1310    4.6440    3.4540 hc        1 MOL      0.110355
      5 H2        -11.6950    5.2210    2.5750 hc        1 MOL      0.110355
      6 H3        -13.2470    5.0370    1.7230 hc        1 MOL      0.110355
      7 N1        -11.1220    2.8900    1.4740 n         1 MOL     -0.204230
      8 C3        -10.5480    1.5840    1.0870 c3        1 MOL     -0.458276
      9 C4         -8.9620    1.4780    1.1290 c         1 MOL      0.964779
     10 O2         -8.2700    2.4450    0.9430 o         1 MOL     -0.750132
     11 C5        -10.9700    1.2450   -0.3450 c3        1 MOL      0.046426
     12 C6        -10.6620    2.3120   -1.3840 c         1 MOL      0.585303
     13 O3        -10.1910    3.4280   -1.0750 o         1 MOL     -0.660092
     14 O4        -10.8680    2.0210   -2.5770 o         1 MOL     -0.660092
     15 H4        -10.6180    3.7160    1.1830 hn        1 MOL      0.104657
     16 H5        -11.0520    0.8150    1.6720 h1        1 MOL      0.137384
     17 H6        -12.0510    1.1520   -0.2850 hc        1 MOL      0.054930
     18 H7        -10.5950    0.2580   -0.6310 hc        1 MOL      0.054930
     19 N2         -8.5520    0.2630    1.4730 n         1 MOL     -0.663616
     20 C7         -7.1740   -0.1510    1.6310 c3        1 MOL      0.122901
     21 C8         -6.5570   -0.7340    0.2970 c         1 MOL      0.642959
     22 O5         -7.1820   -1.6340   -0.2990 o         1 MOL     -0.507611
     23 C9         -7.1030   -1.1780    2.6790 c3        1 MOL     -0.225583
     24 C10        -5.6770   -1.5340    3.1730 c3        1 MOL      0.256397
     25 C11        -5.0170   -0.3550    3.9430 c3        1 MOL     -0.062362
     26 C12        -3.7760   -0.6980    4.7670 c3        1 MOL      0.035106
     27 N3         -4.0610   -1.6410    5.8350 n4        1 MOL     -0.229260
     28 H8         -9.2310   -0.4840    1.5760 hn        1 MOL      0.370436
     29 H9         -6.5450    0.6370    2.0280 h1        1 MOL      0.047412
     30 H10        -7.4130   -2.0860    2.1500 hc        1 MOL      0.048994
     31 H11        -7.7760   -0.9570    3.5020 hc        1 MOL      0.048994
     32 H12        -5.0610   -1.8130    2.3220 hc        1 MOL     -0.046971
     33 H13        -5.7300   -2.4230    3.8030 hc        1 MOL     -0.046971
     34 H14        -5.7970   -0.0650    4.6430 hc        1 MOL      0.029451
     35 H15        -4.6360    0.4250    3.2740 hc        1 MOL      0.029451
     36 H16        -3.5860    0.1900    5.3680 hx        1 MOL      0.052498
     37 H17        -2.9170   -0.9190    4.1410 hx        1 MOL      0.052498
     38 H18        -5.0150   -1.6110    6.1610 hn        1 MOL      0.261957
     39 H19        -3.9270   -2.5950    5.5110 hn        1 MOL      0.261957
     40 H20        -3.3390   -1.5600    6.5390 hn        1 MOL      0.261957
     41 N4         -5.4720   -0.1220   -0.0880 n         1 MOL     -0.570286
     42 C13        -4.7670   -0.3070   -1.3420 c3        1 MOL     -0.048383
     43 C14        -3.3350    0.0990   -1.1860 c         1 MOL      0.628036
     44 O6         -3.0650    1.1060   -0.4730 o         1 MOL     -0.546225
     45 C15        -5.4570    0.4740   -2.5450 c3        1 MOL     -0.105495
     46 C16        -6.1220    1.7770   -2.1120 c         1 MOL      0.803911
     47 O7         -5.4560    2.8000   -1.9110 o         1 MOL     -0.749585
     48 O8         -7.3830    1.7770   -1.9910 o         1 MOL     -0.749585
     49 H21        -5.0580    0.6080    0.4810 hn        1 MOL      0.242574
     50 H22        -4.8020   -1.3860   -1.5410 h1        1 MOL      0.113357
     51 H23        -6.2510   -0.1570   -2.9480 hc        1 MOL      0.053868
     52 H24        -4.8030    0.7710   -3.3720 hc        1 MOL      0.053868
     53 N5         -2.3230   -0.5390   -1.8540 n         1 MOL     -0.527458
     54 C17        -2.4260   -1.5630   -2.9370 c3        1 MOL      0.123851
     55 C18        -2.7230   -2.9840   -2.3900 c         1 MOL      0.401333
     56 O9         -2.8830   -3.1800   -1.1520 o         1 MOL     -0.537715
     57 H25        -1.4450   -0.4650   -1.3570 hn        1 MOL      0.295243
     58 H26        -1.5370   -1.5670   -3.5780 h1        1 MOL      0.051907
     59 H27        -3.2160   -1.3670   -3.6570 h1        1 MOL      0.051907
     60 N6         -2.8610   -3.9840   -3.1640 n         1 MOL     -0.117732
     61 C19        -3.3100   -5.3340   -2.7140 c3        1 MOL     -0.230765
     62 C20        -2.2330   -6.0470   -1.8850 c         1 MOL      0.458773
     63 O10        -2.5240   -6.9760   -1.0770 o         1 MOL     -0.514674
     64 C21        -3.7760   -6.2120   -3.8420 c3        1 MOL     -0.186048
     65 C22        -2.8360   -6.4510   -5.0230 c         1 MOL      0.684753
     66 O11        -2.7510   -5.6150   -5.9360 o         1 MOL     -0.667046
     67 O12        -2.2100   -7.5280   -5.0610 o         1 MOL     -0.667046
     68 H28        -2.6990   -3.8310   -4.1520 hn        1 MOL      0.156282
     69 H29        -4.1700   -5.2830   -2.0480 h1        1 MOL      0.164134
     70 H30        -4.7820   -5.9560   -4.1690 hc        1 MOL      0.080019
     71 H31        -4.0150   -7.2030   -3.4700 hc        1 MOL      0.080019
     72 N7         -0.9480   -5.6660   -2.0080 n         1 MOL     -0.233361
     73 C23         0.1450   -6.0910   -1.1380 c3        1 MOL     -0.012795
     74 C24         0.2450   -5.2610    0.1710 c         1 MOL      0.440639
     75 O13         1.0530   -5.5080    1.0480 o         1 MOL     -0.580698
     76 H32        -0.7090   -4.9470   -2.6840 hn        1 MOL      0.227137
     77 H33         1.0230   -5.9390   -1.7720 h1        1 MOL      0.085351
     78 H34         0.2300   -7.1510   -0.9170 h1        1 MOL      0.085351
     79 N8         -0.4460   -4.1410    0.2470 n         1 MOL     -0.067718
     80 C25        -0.4940   -3.2270    1.4010 c3        1 MOL      0.087427
     81 C26        -0.1060   -1.7970    1.0450 c         1 MOL      0.121989
     82 O14        -0.2620   -1.3040   -0.0960 o         1 MOL     -0.376913
     83 C27        -1.9190   -3.0920    2.0370 c3        1 MOL      0.302212
     84 C28        -2.6120   -4.4500    2.2650 c3        1 MOL     -0.061686
     85 O15        -1.7080   -2.7110    3.3600 oh        1 MOL     -0.690313
     86 H35        -1.0980   -3.9790   -0.4980 hn        1 MOL      0.021012
     87 H36         0.2400   -3.5940    2.1250 h1        1 MOL      0.030201
     88 H37        -2.5720   -2.4260    1.4660 h1        1 MOL      0.105329
     89 H38        -1.0550   -3.3030    3.7490 ho        1 MOL      0.400757
     90 H39        -2.0950   -5.0570    3.0110 hc        1 MOL      0.009388
     91 H40        -3.5890   -4.1290    2.6180 hc        1 MOL      0.009388
     92 H41        -2.7300   -4.9030    1.2860 hc        1 MOL      0.009388
     93 N9          0.2720   -1.0240    2.0840 n         1 MOL      0.037080
     94 C29         0.8150    0.3400    2.0210 c3        1 MOL     -0.103893
     95 C30         2.2530    0.2800    1.4740 c         1 MOL      0.541438
     96 O16         2.6350    1.2600    0.8150 o         1 MOL     -0.514673
     97 C31         0.6260    1.0990    3.3620 c3        1 MOL      0.211215
     98 C32        -0.8280    1.1220    3.9170 c3        1 MOL     -0.388312
     99 C33         1.3120    2.4890    3.3190 c3        1 MOL     -0.188203
    100 C34        -1.6980    1.6980    2.8480 c3        1 MOL      0.142151
    101 H42         0.2750   -1.4000    3.0220 hn        1 MOL      0.165381
    102 H43         0.2370    0.9770    1.3480 h1        1 MOL      0.066650
    103 H44         1.1470    0.5140    4.1300 hc        1 MOL     -0.034634
    104 H45        -0.8810    1.6100    4.8820 hc        1 MOL      0.081798
    105 H46        -1.1960    0.1060    3.9220 hc        1 MOL      0.081798
    106 H47         1.0190    3.1150    2.4710 hc        1 MOL      0.062293
    107 H48         1.1380    3.0040    4.2680 hc        1 MOL      0.062293
    108 H49         2.3900    2.3630    3.3700 hc        1 MOL      0.062293
    109 H50        -1.4490    2.7530    2.7330 hc        1 MOL     -0.003977
    110 H51        -1.7690    1.1300    1.9100 hc        1 MOL     -0.003977
    111 H52        -2.7580    1.7980    3.0850 hc        1 MOL     -0.003977
    112 N10         2.9300   -0.8530    1.5210 n         1 MOL     -0.510363
    113 C35         4.1630   -1.1870    0.7360 c3        1 MOL      0.103626
    114 C36         5.3230   -1.6030    1.6250 c         1 MOL      0.669762
    115 O17         5.0780   -2.2580    2.5890 o         1 MOL     -0.556828
    116 C37         3.8950   -2.2960   -0.3390 c3        1 MOL      0.308121
    117 C38         3.3850   -3.6440    0.2420 c3        1 MOL     -0.236320
    118 O18         2.9540   -1.8350   -1.3830 oh        1 MOL     -0.566367
    119 H53         2.5330   -1.6170    2.0460 hn        1 MOL      0.199094
    120 H54         4.4820   -0.2980    0.1940 h1        1 MOL      0.039417
    121 H55         4.8450   -2.5170   -0.8380 h1        1 MOL     -0.026655
    122 H56         3.5570   -1.3600   -1.9630 ho        1 MOL      0.372564
    123 H57         2.5200   -3.5080    0.8830 hc        1 MOL      0.073218
    124 H58         3.1110   -4.2840   -0.5880 hc        1 MOL      0.073218
    125 H59         4.2170   -4.1020    0.7890 hc        1 MOL      0.073218
    126 N11         6.5090   -1.3790    1.1720 n         1 MOL     -0.628555
    127 C39         7.7540   -1.6160    1.9510 c3        1 MOL      0.039979
    128 C40         8.7360   -0.4610    1.8270 c         1 MOL      0.588375
    129 O19         9.3760    0.0200    2.7200 o         1 MOL     -0.560094
    130 C41         8.4460   -2.8930    1.5390 c3        1 MOL      0.256032
    131 C42         9.5290   -3.3890    2.4820 c3        1 MOL     -0.358672
    132 O20         8.9290   -2.8870    0.2120 oh        1 MOL     -0.618073
    133 H60         6.5330   -0.9430    0.2590 hn        1 MOL      0.285990
    134 H61         7.5120   -1.7120    3.0060 h1        1 MOL      0.115729
    135 H62         7.6720   -3.6600    1.6020 h1        1 MOL      0.057092
    136 H63         8.9380   -3.8190   -0.0240 ho        1 MOL      0.410203
    137 H64         9.0070   -3.5160    3.4280 hc        1 MOL      0.098296
    138 H65         9.9470   -4.3150    2.0810 hc        1 MOL      0.098296
    139 H66        10.2700   -2.6260    2.7110 hc        1 MOL      0.098296
    140 N12         8.9560   -0.0150    0.6000 n         1 MOL     -0.367803
    141 C43        10.0390    0.8790    0.0910 c3        1 MOL     -0.173404
    142 C44         9.5110    1.8260   -0.9720 c         1 MOL      0.444707
    143 O21         9.0280    1.3840   -1.9690 o         1 MOL     -0.470885
    144 C45        11.2110    0.1060   -0.5250 c3        1 MOL     -0.139716
    145 C46        12.0070   -0.5570    0.5690 c3        1 MOL      0.249767
    146 C47        13.0090   -1.6280    0.0090 c3        1 MOL     -0.159557
    147 C48        14.0720   -1.0970   -0.9220 c3        1 MOL     -0.031752
    148 N13        15.1190   -0.3050   -0.2040 n4        1 MOL     -0.197904
    149 H67         8.5130   -0.5810   -0.1110 hn        1 MOL      0.291635
    150 H68        10.2940    1.4890    0.9570 h1        1 MOL      0.157974
    151 H69        11.9000    0.8840   -0.8500 hc        1 MOL      0.073064
    152 H70        10.9320   -0.5490   -1.3480 hc        1 MOL      0.073064
    153 H71        11.3940   -1.0070    1.3470 hc        1 MOL     -0.040945
    154 H72        12.4700    0.2570    1.1150 hc        1 MOL     -0.040945
    155 H73        12.5100   -2.4180   -0.5470 hc        1 MOL      0.071131
    156 H74        13.5030   -2.1220    0.8500 hc        1 MOL      0.071131
    157 H75        13.7330   -0.5420   -1.8040 hx        1 MOL      0.104575
    158 H76        14.5430   -1.9890   -1.3330 hx        1 MOL      0.104575
    159 H77        15.9020   -0.0570   -0.7830 hn        1 MOL      0.233971
    160 H78        14.7610    0.4760    0.3310 hn        1 MOL      0.233971
    161 H79        15.4980   -0.9090    0.5150 hn        1 MOL      0.233971
    162 N14         9.6120    3.1610   -0.8670 n         1 MOL     -0.278174
    163 C49         9.2420    4.1500   -1.8890 c3        1 MOL      0.128651
    164 C50         7.7550    4.2180   -2.2250 c         1 MOL      0.356415
    165 O22         7.3660    3.7560   -3.3310 o         1 MOL     -0.516617
    166 C51         9.9030    5.5320   -1.5830 c3        1 MOL      0.062041
    167 C52        11.3570    5.4900   -1.4890 c3        1 MOL     -0.390483
    168 C53        11.6870    6.9290   -0.9160 c         1 MOL      0.688035
    169 O23        11.6590    7.1920    0.3050 o         1 MOL     -0.643240
    170 O24        11.8370    7.8840   -1.6860 o         1 MOL     -0.643240
    171 H80        10.0360    3.4640   -0.0070 hn        1 MOL      0.227222
    172 H81         9.7870    3.8550   -2.7820 h1        1 MOL      0.037098
    173 H82         9.4520    5.9610   -0.6830 hc        1 MOL      0.054894
    174 H83         9.5550    6.1520   -2.4040 hc        1 MOL      0.054894
    175 H84        11.7560    5.4790   -2.5100 hc        1 MOL      0.066007
    176 H85        11.7420    4.6920   -0.8680 hc        1 MOL      0.066007
    177 N15         6.8280    4.6650   -1.3360 n         1 MOL     -0.374547
    178 C54         6.9810    5.0470    0.0420 c3        1 MOL      0.049779
    179 H86         6.3580    4.4070    0.6670 h1        1 MOL      0.020241
    180 H87         8.0240    4.9370    0.3370 h1        1 MOL      0.020241
    181 H88         6.6750    6.0860    0.1690 h1        1 MOL      0.020241
    182 H89         5.8730    4.6080   -1.6550 hn        1 MOL      0.305017
    183 Ca1        -7.8070    4.2570   -1.0540 Ca        1 MOL      1.758268
    184 O25        -7.7610    4.4950   -3.7100 oh        1 MOL     -0.864804
    185 H90        -8.5370    4.1090   -4.1220 ho        1 MOL      0.427832
    186 H91        -7.7490    5.3950   -4.0070 ho        1 MOL      0.427832
    187 O26        -9.5470    6.0520   -2.0160 oh        1 MOL     -0.864804
    188 H92        -9.5200    7.0010   -2.1130 ho        1 MOL      0.427832
    189 H93       -10.4800    5.8390   -2.1230 ho        1 MOL      0.427832
    190 O27        -6.3330    6.4280   -1.7750 oh        1 MOL     -0.864804
    191 H94        -6.1780    6.6670   -2.6960 ho        1 MOL      0.427832
    192 H95        -5.5490    6.7390   -1.3150 ho        1 MOL      0.427832
@<TRIPOS>BOND
     1    1    2 1   
     2    1    4 1   
     3    1    5 1   
     4    1    6 1   
     5    2    3 2   
     6    2    7 1   
     7    7    8 1   
     8    7   15 1   
     9    8    9 1   
    10    8   11 1   
    11    8   16 1   
    12    9   10 2   
    13    9   19 1   
    14   11   12 1   
    15   11   17 1   
    16   11   18 1   
    17   12   13 1   
    18   12   14 1   
    19   19   20 1   
    20   19   28 1   
    21   20   21 1   
    22   20   23 1   
    23   20   29 1   
    24   21   22 2   
    25   21   41 1   
    26   23   24 1   
    27   23   30 1   
    28   23   31 1   
    29   24   25 1   
    30   24   32 1   
    31   24   33 1   
    32   25   26 1   
    33   25   34 1   
    34   25   35 1   
    35   26   27 1   
    36   26   36 1   
    37   26   37 1   
    38   27   38 1   
    39   27   39 1   
    40   27   40 1   
    41   41   42 1   
    42   41   49 1   
    43   42   43 1   
    44   42   45 1   
    45   42   50 1   
    46   43   44 2   
    47   43   53 1   
    48   45   46 1   
    49   45   51 1   
    50   45   52 1   
    51   46   47 1   
    52   46   48 1   
    53   53   54 1   
    54   53   57 1   
    55   54   55 1   
    56   54   58 1   
    57   54   59 1   
    58   55   56 2   
    59   55   60 1   
    60   60   61 1   
    61   60   68 1   
    62   61   62 1   
    63   61   64 1   
    64   61   69 1   
    65   62   63 2   
    66   62   72 1   
    67   64   65 1   
    68   64   70 1   
    69   64   71 1   
    70   65   66 1   
    71   65   67 1   
    72   72   73 1   
    73   72   76 1   
    74   73   74 1   
    75   73   77 1   
    76   73   78 1   
    77   74   75 2   
    78   74   79 1   
    79   79   80 1   
    80   79   86 1   
    81   80   81 1   
    82   80   83 1   
    83   80   87 1   
    84   81   82 2   
    85   81   93 1   
    86   83   84 1   
    87   83   85 1   
    88   83   88 1   
    89   84   90 1   
    90   84   91 1   
    91   84   92 1   
    92   85   89 1   
    93   93   94 1   
    94   93  101 1   
    95   94   95 1   
    96   94   97 1   
    97   94  102 1   
    98   95   96 2   
    99   95  112 1   
   100   97   98 1   
   101   97   99 1   
   102   97  103 1   
   103   98  100 1   
   104   98  104 1   
   105   98  105 1   
   106   99  106 1   
   107   99  107 1   
   108   99  108 1   
   109  100  109 1   
   110  100  110 1   
   111  100  111 1   
   112  112  113 1   
   113  112  119 1   
   114  113  114 1   
   115  113  116 1   
   116  113  120 1   
   117  114  115 2   
   118  114  126 1   
   119  116  117 1   
   120  116  118 1   
   121  116  121 1   
   122  117  123 1   
   123  117  124 1   
   124  117  125 1   
   125  118  122 1   
   126  126  127 1   
   127  126  133 1   
   128  127  128 1   
   129  127  130 1   
   130  127  134 1   
   131  128  129 2   
   132  128  140 1   
   133  130  131 1   
   134  130  132 1   
   135  130  135 1   
   136  131  137 1   
   137  131  138 1   
   138  131  139 1   
   139  132  136 1   
   140  140  141 1   
   141  140  149 1   
   142  141  142 1   
   143  141  144 1   
   144  141  150 1   
   145  142  143 2   
   146  142  162 1   
   147  144  145 1   
   148  144  151 1   
   149  144  152 1   
   150  145  146 1   
   151  145  153 1   
   152  145  154 1   
   153  146  147 1   
   154  146  155 1   
   155  146  156 1   
   156  147  148 1   
   157  147  157 1   
   158  147  158 1   
   159  148  159 1   
   160  148  160 1   
   161  148  161 1   
   162  162  163 1   
   163  162  171 1   
   164  163  164 1   
   165  163  166 1   
   166  163  172 1   
   167  164  165 2   
   168  164  177 1   
   169  166  167 1   
   170  166  173 1   
   171  166  174 1   
   172  167  168 1   
   173  167  175 1   
   174  167  176 1   
   175  168  169 1   
   176  168  170 1   
   177  177  178 1   
   178  177  182 1   
   179  178  179 1   
   180  178  180 1   
   181  178  181 1   
   182  184  185 1   
   183  184  186 1   
   184  187  188 1   
   185  187  189 1   
   186  190  191 1   
   187  190  192 1   
@<TRIPOS>SUBSTRUCTURE
     1 MOL         1 TEMP              0 ****  ****    0 ROOT
