@<TRIPOS>MOLECULE
MOL
  184   179     1     0     0
SMALL
resp


@<TRIPOS>ATOM
      1 C1         -1.6150    7.0870    1.9700 c3        1 MOL     -0.359635
      2 C2         -2.7450    6.7640    1.0400 c         1 MOL      0.730796
      3 O1         -2.6570    7.1410   -0.0890 o         1 MOL     -0.581369
      4 H1         -0.8900    7.7180    1.4540 hc        1 MOL      0.088462
      5 H2         -2.0000    7.6160    2.8420 hc        1 MOL      0.088462
      6 H3         -1.1310    6.1650    2.2890 hc        1 MOL      0.088462
      7 N1         -3.8390    6.1770    1.4980 n         1 MOL     -0.639607
      8 C3         -5.1080    6.2750    0.7910 c3        1 MOL      0.274374
      9 C4         -5.4280    5.0790   -0.1750 c         1 MOL      0.441127
     10 O2         -6.6100    4.5950   -0.2100 o         1 MOL     -0.489683
     11 C5         -6.2180    6.5310    1.8260 c3        1 MOL     -0.281667
     12 C6         -7.5710    6.8840    1.1800 c         1 MOL      0.751735
     13 O3         -7.7410    7.8930    0.4570 o         1 MOL     -0.743768
     14 O4         -8.5670    6.2740    1.6890 o         1 MOL     -0.743768
     15 H4         -3.8420    5.9900    2.4850 hn        1 MOL      0.311015
     16 H5         -5.0040    7.1400    0.1310 h1        1 MOL      0.017571
     17 H6         -5.8850    7.3190    2.5000 hc        1 MOL      0.037207
     18 H7         -6.3180    5.6840    2.4990 hc        1 MOL      0.037207
     19 N2         -4.4400    4.7920   -1.0160 n         1 MOL     -0.503320
     20 C7         -4.5460    3.8220   -2.1280 c3        1 MOL      0.364389
     21 C8         -3.3700    2.8060   -2.1150 c         1 MOL      0.437217
     22 O5         -2.2880    3.2140   -1.7550 o         1 MOL     -0.535481
     23 C9         -4.6440    4.6710   -3.4260 c3        1 MOL     -0.180538
     24 H8         -3.5850    5.3240   -0.9850 hn        1 MOL      0.260525
     25 H9         -5.4850    3.2780   -2.0810 h1        1 MOL     -0.010939
     26 H10        -5.6090    5.1480   -3.5970 hc        1 MOL      0.041169
     27 H11        -3.8800    5.4500   -3.4350 hc        1 MOL      0.041169
     28 H12        -4.4830    4.0740   -4.3250 hc        1 MOL      0.041169
     29 N3         -3.4110    1.5200   -2.4410 n         1 MOL     -0.340141
     30 C10        -4.5150    0.9160   -3.1880 c3        1 MOL      0.012980
     31 C11        -5.3950    0.0110   -2.2960 c         1 MOL      0.585549
     32 O6         -5.0260   -0.2270   -1.1280 o         1 MOL     -0.536207
     33 C12        -3.9220    0.1300   -4.3450 c3        1 MOL     -0.151130
     34 C13        -2.7490   -0.7470   -3.8980 c         1 MOL      0.671624
     35 O7         -1.6840   -0.2150   -3.4990 o         1 MOL     -0.695099
     36 O8         -2.7180   -1.9570   -4.1270 o         1 MOL     -0.695099
     37 H13        -2.4950    1.1060   -2.3730 hn        1 MOL      0.225027
     38 H14        -5.2260    1.6410   -3.5740 h1        1 MOL      0.035238
     39 H15        -3.5100    0.8910   -5.0060 hc        1 MOL      0.031944
     40 H16        -4.6950   -0.5030   -4.7880 hc        1 MOL      0.031944
     41 N4         -6.4880   -0.5290   -2.7720 n         1 MOL     -0.451571
     42 C14        -7.3230   -1.3710   -1.9970 c3        1 MOL     -0.077361
     43 C15        -8.0210   -0.7840   -0.7970 c         1 MOL      0.602816
     44 O9         -8.6170    0.3200   -0.9190 o         1 MOL     -0.529811
     45 H17        -6.8180   -0.2990   -3.6970 hn        1 MOL      0.306534
     46 H18        -6.7430   -2.2410   -1.6980 h1        1 MOL      0.091295
     47 H19        -8.0920   -1.8040   -2.6530 h1        1 MOL      0.091295
     48 N5         -8.2010   -1.4640    0.3720 n         1 MOL     -0.549142
     49 C16        -7.4300   -2.6520    0.7220 c3        1 MOL     -0.061646
     50 C17        -7.0050   -2.7620    2.2110 c         1 MOL      0.742128
     51 O10        -7.8830   -2.5250    3.0400 o         1 MOL     -0.573259
     52 C18        -8.2800   -3.8850    0.3920 c3        1 MOL     -0.295833
     53 C19        -8.4690   -4.2490   -1.0750 c         1 MOL      0.702530
     54 N6         -9.6230   -3.9550   -1.6360 n         1 MOL     -0.803977
     55 O11        -7.5230   -4.6860   -1.7400 o         1 MOL     -0.578362
     56 H20        -8.4410   -0.8730    1.1610 hn        1 MOL      0.354231
     57 H21        -6.5310   -2.6960    0.1110 h1        1 MOL      0.085012
     58 H22        -9.2230   -3.9890    0.9370 hc        1 MOL      0.082450
     59 H23        -7.7580   -4.7530    0.8010 hc        1 MOL      0.082450
     60 H24       -10.4010   -3.6430   -1.0730 hn        1 MOL      0.372340
     61 H25        -9.6880   -3.9800   -2.6430 hn        1 MOL      0.372340
     62 N7         -5.7740   -3.0530    2.4880 n         1 MOL     -0.443409
     63 C20        -5.2890   -3.1790    3.9070 c3        1 MOL     -0.143756
     64 C21        -3.8410   -3.6240    4.0970 c         1 MOL      0.547636
     65 O12        -3.5250   -4.2280    5.1140 o         1 MOL     -0.534321
     66 H26        -5.1270   -3.0300    1.7170 hn        1 MOL      0.267026
     67 H27        -5.9100   -3.9060    4.4290 h1        1 MOL      0.118450
     68 H28        -5.4420   -2.2260    4.4130 h1        1 MOL      0.118450
     69 N8         -2.9750   -3.4370    3.0600 n         1 MOL     -0.328334
     70 C22        -1.6130   -4.0320    3.1130 c3        1 MOL     -0.238183
     71 C23        -0.5740   -3.0140    2.6650 c         1 MOL      0.577948
     72 O13        -0.9120   -2.0230    1.9930 o         1 MOL     -0.558404
     73 C24        -1.5590   -5.3380    2.2830 c3        1 MOL      0.613543
     74 C25        -2.1720   -6.5430    3.0690 c3        1 MOL     -0.577408
     75 O14        -2.0870   -5.2440    1.0140 oh        1 MOL     -0.643519
     76 H29        -3.2590   -2.8810    2.2720 hn        1 MOL      0.294393
     77 H30        -1.3390   -4.2700    4.1450 h1        1 MOL      0.133557
     78 H31        -0.4880   -5.4810    2.1130 h1        1 MOL     -0.072786
     79 H32        -1.2950   -5.4830    0.5220 ho        1 MOL      0.369176
     80 H33        -1.7540   -6.7450    4.0500 hc        1 MOL      0.143959
     81 H34        -3.2570   -6.5540    3.1530 hc        1 MOL      0.143959
     82 H35        -2.0910   -7.3890    2.3870 hc        1 MOL      0.143959
     83 N9          0.7370   -3.3420    2.9080 n         1 MOL     -0.309738
     84 C26         1.9760   -2.6430    2.4880 c3        1 MOL      0.003739
     85 C27         2.9260   -3.4820    1.7680 c         1 MOL      0.521054
     86 O15         3.1020   -4.6810    2.0750 o         1 MOL     -0.570470
     87 C28         2.6680   -1.8400    3.5340 c3        1 MOL      0.025362
     88 C29         1.7660   -0.5960    3.7790 c3        1 MOL     -0.194799
     89 C30         3.0070   -2.6700    4.7610 c3        1 MOL     -0.489921
     90 C31         2.3830    0.5160    4.6860 c3        1 MOL      0.006734
     91 H36         0.9530   -4.0330    3.6150 hn        1 MOL      0.210941
     92 H37         1.5950   -1.9980    1.7020 h1        1 MOL     -0.006658
     93 H38         3.6310   -1.4660    3.1750 hc        1 MOL      0.104587
     94 H39         0.8860   -1.0270    4.2470 hc        1 MOL      0.091391
     95 H40         1.3770   -0.1330    2.8680 hc        1 MOL      0.091391
     96 H41         3.5990   -3.4740    4.3130 hc        1 MOL      0.134670
     97 H42         3.5670   -1.9750    5.3920 hc        1 MOL      0.134670
     98 H43         2.1650   -3.0310    5.3490 hc        1 MOL      0.134670
     99 H44         1.6550    1.1660    5.1560 hc        1 MOL     -0.008672
    100 H45         2.9730    0.1310    5.5200 hc        1 MOL     -0.008672
    101 H46         3.1030    1.0600    4.0670 hc        1 MOL     -0.008672
    102 N10         3.5670   -2.9450    0.7530 n         1 MOL     -0.387406
    103 C32         4.4420   -3.7310   -0.1170 c3        1 MOL      0.152001
    104 C33         5.6970   -2.9700   -0.6960 c         1 MOL      0.377286
    105 O16         6.1610   -3.2750   -1.7830 o         1 MOL     -0.529630
    106 C34         3.6090   -4.3270   -1.1820 c3        1 MOL      0.058245
    107 C35         2.5320   -3.4290   -1.8090 c         1 MOL      0.637787
    108 O17         1.3840   -3.5530   -1.4290 o         1 MOL     -0.714344
    109 O18         2.7620   -2.5510   -2.6700 o         1 MOL     -0.714344
    110 H47         3.2480   -2.0470    0.4230 hn        1 MOL      0.269429
    111 H48         4.8200   -4.5900    0.4270 h1        1 MOL      0.030260
    112 H49         3.0300   -5.1570   -0.7680 hc        1 MOL     -0.029180
    113 H50         4.1480   -4.8260   -1.9750 hc        1 MOL     -0.029180
    114 N11         6.1310   -1.9200   -0.0620 n         1 MOL     -0.304051
    115 C36         7.2400   -0.9980   -0.3620 c3        1 MOL      0.337753
    116 C37         6.9660    0.3620    0.2410 c         1 MOL      0.361867
    117 O19         6.6370    0.4140    1.4070 o         1 MOL     -0.529601
    118 C38         8.6330   -1.5240    0.0150 c3        1 MOL     -0.360303
    119 C39         9.7910   -0.7890   -0.6570 ca        1 MOL      0.114392
    120 C40        10.4140   -1.2850   -1.8480 ca        1 MOL     -0.175006
    121 C41        10.2170    0.5210   -0.2010 ca        1 MOL     -0.175006
    122 C42        11.4260   -0.5360   -2.4590 ca        1 MOL     -0.119110
    123 C43        11.2660    1.2290   -0.7690 ca        1 MOL     -0.119110
    124 C44        11.8110    0.7290   -1.9630 ca        1 MOL     -0.117698
    125 H51         5.7070   -1.6800    0.8170 hn        1 MOL      0.144028
    126 H52         7.2970   -0.9070   -1.4410 h1        1 MOL      0.010057
    127 H53         8.7420   -2.5770   -0.2160 hc        1 MOL      0.113558
    128 H54         8.7120   -1.4250    1.0920 hc        1 MOL      0.113558
    129 H55        10.2040   -2.2910   -2.1960 ha        1 MOL      0.127166
    130 H56         9.7200    0.9510    0.6550 ha        1 MOL      0.127166
    131 H57        11.9960   -0.9670   -3.2760 ha        1 MOL      0.110705
    132 H58        11.6790    2.0840   -0.2650 ha        1 MOL      0.110705
    133 H59        12.6690    1.1940   -2.4160 ha        1 MOL      0.094133
    134 N12         7.1650    1.4360   -0.5240 n         1 MOL      0.057796
    135 C45         7.2610    2.8530   -0.0270 c3        1 MOL     -0.241322
    136 C46         6.0120    3.5870    0.5580 c         1 MOL      0.561595
    137 O20         6.0670    4.7660    1.0030 o         1 MOL     -0.580769
    138 C47         7.7780    3.6140   -1.1840 c3        1 MOL      0.043037
    139 C48         7.0620    3.0050   -2.3540 c3        1 MOL     -0.188498
    140 C49         7.0410    1.5190   -1.9620 c3        1 MOL     -0.180148
    141 H60         7.9460    2.9060    0.8160 h1        1 MOL      0.097554
    142 H61         7.6840    4.6990   -1.0870 hc        1 MOL      0.035893
    143 H62         8.8620    3.5540   -1.2790 hc        1 MOL      0.035893
    144 H63         6.0480    3.4090   -2.3580 hc        1 MOL      0.083531
    145 H64         7.5260    3.0410   -3.3400 hc        1 MOL      0.083531
    146 H65         6.2830    0.8520   -2.3650 h1        1 MOL      0.110991
    147 H66         7.9420    1.0260   -2.3280 h1        1 MOL      0.110991
    148 N13         4.8690    2.9100    0.7380 n         1 MOL     -0.321895
    149 C50         3.5540    3.3560    1.3060 c3        1 MOL     -0.001426
    150 C51         3.7140    4.0540    2.7370 c         1 MOL      0.304865
    151 O21         2.9740    4.9860    3.1140 o         1 MOL     -0.519927
    152 C52         2.5090    2.2800    1.3570 c3        1 MOL     -0.013933
    153 C53         2.1480    1.8440   -0.0930 c3        1 MOL     -0.087804
    154 C54         2.9670    0.6530   -0.4340 c         1 MOL      0.791745
    155 O22         4.0430    0.8830   -0.9590 o         1 MOL     -0.699674
    156 O23         2.5030   -0.4840   -0.2750 o         1 MOL     -0.699674
    157 H67         5.0120    1.9430    0.4680 hn        1 MOL      0.244104
    158 H68         3.1220    4.1250    0.6590 h1        1 MOL      0.112397
    159 H69         1.6250    2.6930    1.8280 hc        1 MOL      0.045092
    160 H70         3.0470    1.4460    1.8290 hc        1 MOL      0.045092
    161 H71         2.4460    2.6290   -0.7890 hc        1 MOL      0.006587
    162 H72         1.0680    1.7290   -0.1370 hc        1 MOL      0.006587
    163 N14         4.7670    3.6900    3.4920 n         1 MOL      0.061214
    164 C55         5.1280    4.2010    4.7430 c3        1 MOL     -0.263503
    165 H73         4.9870    3.4320    5.5030 h1        1 MOL      0.087780
    166 H74         6.1750    4.5050    4.7240 h1        1 MOL      0.087780
    167 H75         4.5040    5.0630    4.9780 h1        1 MOL      0.087780
    168 H76         5.3760    3.0660    2.9800 hn        1 MOL      0.116403
    169 Ca1         0.1250   -1.8450   -2.8890 Ca        1 MOL      1.738175
    170 O24        -0.1440   -0.9910   -0.4190 oh        1 MOL     -0.823394
    171 O25        -0.2650   -3.9270   -4.4490 oh        1 MOL     -0.823394
    172 H77         0.7340   -0.6480   -0.2480 ho        1 MOL      0.405609
    173 H78        -1.2110   -3.9910   -4.5600 ho        1 MOL      0.405609
    174 H79        -0.3980   -1.4040    0.4070 ho        1 MOL      0.405609
    175 H80         0.0400   -4.8330   -4.4830 ho        1 MOL      0.405609
    176 O26         1.3550    0.5400   -3.1510 oh        1 MOL     -0.823394
    177 H81         0.9330    1.3880   -3.0240 ho        1 MOL      0.405609
    178 H82         2.2640    0.7520   -3.3680 ho        1 MOL      0.405609
    179 O27        -1.7960   -3.4610   -1.6490 oh        1 MOL     -0.823394
    180 H83        -2.7290   -3.4840   -1.8890 ho        1 MOL      0.405609
    181 H84        -1.7680   -3.8490   -0.7740 ho        1 MOL      0.405609
    182 O28         0.9590   -1.1500   -5.3530 oh        1 MOL     -0.823394
    183 H85         0.9200   -0.2050   -5.4610 ho        1 MOL      0.405609
    184 H86         1.4050   -1.4660   -6.1340 ho        1 MOL      0.405609
@<TRIPOS>BOND
     1    1    2 1   
     2    1    4 1   
     3    1    5 1   
     4    1    6 1   
     5    2    3 2   
     6    2    7 1   
     7    7    8 1   
     8    7   15 1   
     9    8    9 1   
    10    8   11 1   
    11    8   16 1   
    12    9   10 2   
    13    9   19 1   
    14   11   12 1   
    15   11   17 1   
    16   11   18 1   
    17   12   13 1   
    18   12   14 1   
    19   19   20 1   
    20   19   24 1   
    21   20   21 1   
    22   20   23 1   
    23   20   25 1   
    24   21   22 2   
    25   21   29 1   
    26   23   26 1   
    27   23   27 1   
    28   23   28 1   
    29   29   30 1   
    30   29   37 1   
    31   30   31 1   
    32   30   33 1   
    33   30   38 1   
    34   31   32 2   
    35   31   41 1   
    36   33   34 1   
    37   33   39 1   
    38   33   40 1   
    39   34   35 1   
    40   34   36 1   
    41   41   42 1   
    42   41   45 1   
    43   42   43 1   
    44   42   46 1   
    45   42   47 1   
    46   43   44 2   
    47   43   48 1   
    48   48   49 1   
    49   48   56 1   
    50   49   50 1   
    51   49   52 1   
    52   49   57 1   
    53   50   51 2   
    54   50   62 1   
    55   52   53 1   
    56   52   58 1   
    57   52   59 1   
    58   53   54 1   
    59   53   55 2   
    60   54   60 1   
    61   54   61 1   
    62   62   63 1   
    63   62   66 1   
    64   63   64 1   
    65   63   67 1   
    66   63   68 1   
    67   64   65 2   
    68   64   69 1   
    69   69   70 1   
    70   69   76 1   
    71   70   71 1   
    72   70   73 1   
    73   70   77 1   
    74   71   72 2   
    75   71   83 1   
    76   73   74 1   
    77   73   75 1   
    78   73   78 1   
    79   74   80 1   
    80   74   81 1   
    81   74   82 1   
    82   75   79 1   
    83   83   84 1   
    84   83   91 1   
    85   84   85 1   
    86   84   87 1   
    87   84   92 1   
    88   85   86 2   
    89   85  102 1   
    90   87   88 1   
    91   87   89 1   
    92   87   93 1   
    93   88   90 1   
    94   88   94 1   
    95   88   95 1   
    96   89   96 1   
    97   89   97 1   
    98   89   98 1   
    99   90   99 1   
   100   90  100 1   
   101   90  101 1   
   102  102  103 1   
   103  102  110 1   
   104  103  104 1   
   105  103  106 1   
   106  103  111 1   
   107  104  105 2   
   108  104  114 1   
   109  106  107 1   
   110  106  112 1   
   111  106  113 1   
   112  107  108 1   
   113  107  109 1   
   114  114  115 1   
   115  114  125 1   
   116  115  116 1   
   117  115  118 1   
   118  115  126 1   
   119  116  117 2   
   120  116  134 1   
   121  118  119 1   
   122  118  127 1   
   123  118  128 1   
   124  119  120 ar  
   125  119  121 ar  
   126  120  122 ar  
   127  120  129 1   
   128  121  123 ar  
   129  121  130 1   
   130  122  124 ar  
   131  122  131 1   
   132  123  124 ar  
   133  123  132 1   
   134  124  133 1   
   135  134  135 1   
   136  134  140 1   
   137  135  136 1   
   138  135  138 1   
   139  135  141 1   
   140  136  137 2   
   141  136  148 1   
   142  138  139 1   
   143  138  142 1   
   144  138  143 1   
   145  139  140 1   
   146  139  144 1   
   147  139  145 1   
   148  140  146 1   
   149  140  147 1   
   150  148  149 1   
   151  148  157 1   
   152  149  150 1   
   153  149  152 1   
   154  149  158 1   
   155  150  151 2   
   156  150  163 1   
   157  152  153 1   
   158  152  159 1   
   159  152  160 1   
   160  153  154 1   
   161  153  161 1   
   162  153  162 1   
   163  154  155 1   
   164  154  156 1   
   165  163  164 1   
   166  163  168 1   
   167  164  165 1   
   168  164  166 1   
   169  164  167 1   
   170  170  172 1   
   171  170  174 1   
   172  171  173 1   
   173  171  175 1   
   174  176  177 1   
   175  176  178 1   
   176  179  180 1   
   177  179  181 1   
   178  182  183 1   
   179  182  184 1   
@<TRIPOS>SUBSTRUCTURE
     1 MOL         1 TEMP              0 ****  ****    0 ROOT
