@<TRIPOS>MOLECULE
MOL
  188   182     1     0     0
SMALL
resp


@<TRIPOS>ATOM
      1 C1          6.0860    1.8250    5.6490 c3        1 MOL     -0.478205
      2 C2          5.2740    1.5280    4.3630 c         1 MOL      0.706476
      3 O1          4.0980    1.1680    4.4390 o         1 MOL     -0.618608
      4 H1          5.4390    2.3030    6.3850 hc        1 MOL      0.117221
      5 H2          6.4730    0.8920    6.0590 hc        1 MOL      0.117221
      6 H3          6.9160    2.4900    5.4090 hc        1 MOL      0.117221
      7 N1          5.9070    1.7230    3.2480 n         1 MOL     -0.361781
      8 C3          5.2130    1.5770    1.9190 c3        1 MOL     -0.038938
      9 C4          5.3320    0.1610    1.3760 c         1 MOL      0.433777
     10 O2          4.4500   -0.2190    0.6080 o         1 MOL     -0.513355
     11 C5          5.8360    2.5970    0.8930 c3        1 MOL     -0.230483
     12 C6          7.3510    2.8050    0.8070 c         1 MOL      0.696303
     13 O3          7.7320    3.8230    0.1770 o         1 MOL     -0.648239
     14 O4          8.2230    1.9830    1.2470 o         1 MOL     -0.648239
     15 H4          6.9040    1.8760    3.2190 hn        1 MOL      0.201194
     16 H5          4.1410    1.7110    1.9660 h1        1 MOL      0.108043
     17 H6          5.3960    3.5790    1.0860 hc        1 MOL      0.069643
     18 H7          5.4600    2.4400   -0.1190 hc        1 MOL      0.069643
     19 N2          6.2960   -0.6150    1.8540 n         1 MOL     -0.214199
     20 C7          6.3510   -2.0640    1.8310 c3        1 MOL     -0.119454
     21 C8          6.7450   -2.6130    0.3870 c         1 MOL      0.520038
     22 O5          7.9430   -2.6020    0.0720 o         1 MOL     -0.535045
     23 C9          7.2680   -2.7340    2.9460 c3        1 MOL     -0.107573
     24 C10         6.5470   -2.7450    4.2840 c3        1 MOL      0.079021
     25 C11         7.4350   -3.0290    5.4980 c3        1 MOL      0.035297
     26 C12         8.1290   -4.4460    5.2580 c3        1 MOL      0.060287
     27 N3          9.0540   -4.8060    6.4010 n4        1 MOL     -0.432094
     28 H8          7.0000   -0.1200    2.3750 hn        1 MOL      0.233028
     29 H9          5.3130   -2.3710    1.9350 h1        1 MOL      0.097156
     30 H10         8.2040   -2.1850    3.0630 hc        1 MOL      0.059622
     31 H11         7.5170   -3.7680    2.6960 hc        1 MOL      0.059622
     32 H12         5.8770   -3.5980    4.2250 hc        1 MOL     -0.004534
     33 H13         6.0140   -1.8270    4.5420 hc        1 MOL     -0.004534
     34 H14         6.7980   -3.2310    6.3540 hc        1 MOL      0.004427
     35 H15         8.1220   -2.2330    5.7640 hc        1 MOL      0.004427
     36 H16         8.6070   -4.4730    4.2750 hx        1 MOL      0.072963
     37 H17         7.2650   -5.1060    5.2230 hx        1 MOL      0.072963
     38 H18         9.4440   -5.7230    6.2240 hn        1 MOL      0.321477
     39 H19         9.7580   -4.0880    6.3980 hn        1 MOL      0.321477
     40 H20         8.5740   -4.8200    7.2900 hn        1 MOL      0.321477
     41 N4          5.7340   -3.0410   -0.3490 n         1 MOL     -0.403285
     42 C13         5.7120   -3.4000   -1.7720 c3        1 MOL      0.103953
     43 C14         5.1760   -2.2370   -2.6440 c         1 MOL      0.533932
     44 O6          5.1560   -2.3290   -3.9000 o         1 MOL     -0.572617
     45 C15         4.9160   -4.7060   -2.0420 c3        1 MOL     -0.199125
     46 C16         3.4780   -4.5310   -1.6050 c         1 MOL      0.628219
     47 O7          2.5380   -5.0840   -2.2610 o         1 MOL     -0.679105
     48 O8          3.1050   -3.7530   -0.6780 o         1 MOL     -0.679105
     49 H21         4.8100   -3.0340    0.0710 hn        1 MOL      0.225062
     50 H22         6.7510   -3.5390   -2.0370 h1        1 MOL      0.069972
     51 H23         5.3870   -5.5370   -1.5070 hc        1 MOL      0.069911
     52 H24         5.0040   -4.9070   -3.1100 hc        1 MOL      0.069911
     53 N5          4.7740   -1.0970   -2.0790 n         1 MOL     -0.447983
     54 C17         4.1980    0.0730   -2.8040 c3        1 MOL      0.187589
     55 C18         5.3760    1.0100   -3.4640 c         1 MOL      0.472454
     56 O9          6.5230    0.8290   -3.1200 o         1 MOL     -0.469728
     57 H25         4.8180   -1.0220   -1.0720 hn        1 MOL      0.313007
     58 H26         3.5660    0.5960   -2.0800 h1        1 MOL     -0.000990
     59 H27         3.5240   -0.3110   -3.5700 h1        1 MOL     -0.000990
     60 N6          4.9900    2.0660   -4.1710 n         1 MOL     -0.453766
     61 C19         3.6040    2.4560   -4.5290 c3        1 MOL      0.149793
     62 C20         3.6560    4.0620   -4.6200 c         1 MOL      0.596848
     63 O10         4.5610    4.5590   -5.2610 o         1 MOL     -0.532520
     64 C21         3.2240    1.8980   -5.8940 c3        1 MOL     -0.264724
     65 C22         1.6840    1.9120   -6.1410 c         1 MOL      0.662403
     66 N7          1.3000    1.4240   -7.2370 n         1 MOL     -0.740455
     67 O11         0.9350    2.5250   -5.4030 o         1 MOL     -0.578700
     68 H28         5.7290    2.5900   -4.6210 hn        1 MOL      0.314329
     69 H29         2.8190    2.1420   -3.8570 h1        1 MOL     -0.034825
     70 H30         3.5750    0.8700   -5.9910 hc        1 MOL      0.075236
     71 H31         3.6240    2.5000   -6.7040 hc        1 MOL      0.075236
     72 H32         2.0040    1.0520   -7.8540 hn        1 MOL      0.362373
     73 H33         0.3140    1.4830   -7.4530 hn        1 MOL      0.362373
     74 N8          2.8190    4.7340   -3.7800 n         1 MOL     -0.491434
     75 C23         2.1000    4.0420   -2.6250 c3        1 MOL      0.012400
     76 C24         1.0830    4.9360   -1.8080 c         1 MOL      0.590401
     77 O12         1.2760    6.1320   -1.6380 o         1 MOL     -0.518742
     78 H34         2.8480    5.7450   -3.7360 hn        1 MOL      0.301332
     79 H35         2.8630    3.6350   -1.9650 h1        1 MOL      0.070360
     80 H36         1.5440    3.2670   -3.1440 h1        1 MOL      0.070360
     81 N9         -0.0310    4.3540   -1.3650 n         1 MOL     -0.517356
     82 C25        -0.8940    4.7600   -0.1650 c3        1 MOL      0.152634
     83 C26        -1.8150    3.6390    0.1740 c         1 MOL      0.605370
     84 O13        -2.0610    2.7680   -0.5980 o         1 MOL     -0.494908
     85 C27        -1.6740    6.0970   -0.4540 c3        1 MOL     -0.191240
     86 C28        -2.2400    6.8530    0.7070 ca        1 MOL      0.033067
     87 C29        -3.6100    6.8510    0.8460 ca        1 MOL     -0.083485
     88 C30        -1.4750    7.5950    1.6210 ca        1 MOL     -0.083485
     89 C31        -4.1690    7.5840    1.8860 ca        1 MOL     -0.357802
     90 C32        -2.0430    8.3060    2.7040 ca        1 MOL     -0.357802
     91 C33        -3.4250    8.2220    2.8240 ca        1 MOL      0.435967
     92 O14        -4.0250    8.8830    3.8340 oh        1 MOL     -0.518003
     93 H37        -0.1120    3.3520   -1.4900 hn        1 MOL      0.221105
     94 H38        -0.2630    4.8750    0.7210 h1        1 MOL      0.027342
     95 H39        -2.5090    5.8420   -1.1190 hc        1 MOL      0.107170
     96 H40        -1.0860    6.8550   -0.9670 hc        1 MOL      0.107170
     97 H41        -4.2890    6.2940    0.2210 ha        1 MOL      0.117809
     98 H42        -0.3940    7.6900    1.5290 ha        1 MOL      0.117809
     99 H43        -5.2430    7.6230    1.9470 ha        1 MOL      0.164886
    100 H44        -1.4780    8.9580    3.3560 ha        1 MOL      0.164886
    101 H45        -3.3000    9.3170    4.2760 ho        1 MOL      0.366540
    102 N10        -2.4090    3.7140    1.3870 n         1 MOL     -0.529272
    103 C34        -3.5200    2.7990    1.7990 c3        1 MOL     -0.110241
    104 C35        -4.5990    2.7850    0.6630 c         1 MOL      0.526294
    105 O15        -4.7880    3.7750   -0.0950 o         1 MOL     -0.487938
    106 C36        -4.2380    3.2510    3.1540 c3        1 MOL      0.120809
    107 C37        -3.4470    2.8320    4.3500 c3        1 MOL      0.023299
    108 C38        -4.4780    4.7560    3.2420 c3        1 MOL     -0.038522
    109 C39        -3.9430    3.1370    5.7420 c3        1 MOL     -0.129000
    110 H46        -2.1470    4.4310    2.0460 hn        1 MOL      0.285066
    111 H47        -3.1390    1.7990    2.0000 h1        1 MOL      0.097675
    112 H48        -5.2040    2.7540    3.2500 hc        1 MOL      0.012526
    113 H49        -2.4410    3.2180    4.2600 hc        1 MOL      0.001489
    114 H50        -3.3480    1.7470    4.2830 hc        1 MOL      0.001489
    115 H51        -5.0610    5.0800    2.3770 hc        1 MOL      0.025165
    116 H52        -5.1230    5.0840    4.0630 hc        1 MOL      0.025165
    117 H53        -3.5460    5.3000    3.1710 hc        1 MOL      0.025165
    118 H54        -3.2330    2.8900    6.5330 hc        1 MOL      0.030753
    119 H55        -4.1820    4.1980    5.8270 hc        1 MOL      0.030753
    120 H56        -4.8570    2.5530    5.8300 hc        1 MOL      0.030753
    121 N11        -5.3910    1.7200    0.5850 n         1 MOL     -0.443580
    122 C40        -6.5420    1.4980   -0.3580 c3        1 MOL      0.103427
    123 C41        -6.4250    0.0540   -0.9060 c         1 MOL      0.577598
    124 O16        -6.0100   -0.8320   -0.1470 o         1 MOL     -0.464624
    125 C42        -7.9060    1.7840    0.2970 c3        1 MOL      0.055778
    126 O17        -8.1170    0.9570    1.4160 oh        1 MOL     -0.584502
    127 H57        -5.3240    0.9730    1.2580 hn        1 MOL      0.271639
    128 H58        -6.4850    2.1880   -1.2030 h1        1 MOL      0.038091
    129 H59        -8.6020    1.5960   -0.5140 h1        1 MOL      0.041524
    130 H60        -7.9740    2.8270    0.6090 h1        1 MOL      0.041524
    131 H61        -9.0010    1.1040    1.7600 ho        1 MOL      0.410958
    132 N12        -6.8140   -0.0550   -2.2030 n         1 MOL     -0.468290
    133 C43        -6.5490   -1.2420   -3.0050 c3        1 MOL      0.077296
    134 C44        -7.1650   -2.4680   -2.3880 c         1 MOL      0.376575
    135 O18        -6.6170   -3.5570   -2.5690 o         1 MOL     -0.448089
    136 C45        -4.9940   -1.4600   -3.1790 c3        1 MOL     -0.224707
    137 H62        -7.2660    0.6850   -2.7170 hn        1 MOL      0.298007
    138 H63        -6.9550   -1.1980   -4.0140 h1        1 MOL      0.099130
    139 H64        -4.5460   -1.5540   -2.1890 hc        1 MOL      0.072915
    140 H65        -4.7650   -2.3240   -3.7990 hc        1 MOL      0.072915
    141 H66        -4.5750   -0.5670   -3.6300 hc        1 MOL      0.072915
    142 N13        -8.2180   -2.3440   -1.6340 n         1 MOL     -0.423917
    143 C46        -8.8850   -3.4290   -0.8950 c3        1 MOL      0.315436
    144 C47        -7.9960   -4.4030   -0.0590 c         1 MOL      0.431930
    145 O19        -8.1600   -5.5800   -0.0560 o         1 MOL     -0.484236
    146 C48        -9.9030   -4.0720   -1.8480 c3        1 MOL     -0.312405
    147 H67        -8.7420   -1.4860   -1.5800 hn        1 MOL      0.255006
    148 H68        -9.4840   -2.9120   -0.1480 h1        1 MOL     -0.006970
    149 H69        -9.4750   -4.8960   -2.4250 hc        1 MOL      0.086146
    150 H70       -10.6660   -4.5030   -1.2180 hc        1 MOL      0.086146
    151 H71       -10.3550   -3.3480   -2.5230 hc        1 MOL      0.086146
    152 N14        -6.8970   -3.9420    0.5780 n         1 MOL     -0.458612
    153 C49        -5.8000   -4.7700    1.1180 c3        1 MOL     -0.008898
    154 C50        -5.7990   -4.8810    2.7390 c         1 MOL      0.481805
    155 O20        -5.3770   -5.9450    3.1810 o         1 MOL     -0.531601
    156 C51        -4.4870   -4.2180    0.4900 c3        1 MOL      0.437481
    157 C52        -3.2020   -4.9570    0.9070 c3        1 MOL     -0.225132
    158 C53        -1.9560   -4.5150    0.2250 c         1 MOL      0.745614
    159 O21        -1.2980   -3.5680    0.6740 o         1 MOL     -0.764929
    160 O22        -1.6000   -5.0720   -0.8530 o         1 MOL     -0.764929
    161 H72        -6.7630   -2.9440    0.5740 hn        1 MOL      0.184196
    162 H73        -5.7200   -5.7450    0.6480 h1        1 MOL      0.128760
    163 H74        -4.2800   -3.2100    0.8400 hc        1 MOL     -0.085782
    164 H75        -4.5710   -4.1990   -0.5960 hc        1 MOL     -0.085782
    165 H76        -3.2920   -6.0470    0.9310 hc        1 MOL      0.010610
    166 H77        -3.0700   -4.6020    1.9270 hc        1 MOL      0.010610
    167 N15        -6.2680   -3.9160    3.5140 n         1 MOL     -0.317979
    168 C54        -6.3570   -4.0300    5.0160 c3        1 MOL     -0.212220
    169 H78        -6.4590   -5.0790    5.2930 h1        1 MOL      0.111662
    170 H79        -5.4520   -3.6230    5.4660 h1        1 MOL      0.111662
    171 H80        -7.2250   -3.4740    5.3730 h1        1 MOL      0.111662
    172 H81        -6.6240   -3.0680    3.1010 hn        1 MOL      0.255112
    173 Ca1         0.6060   -3.6190   -1.0950 Ca        1 MOL      1.727908
    174 O23         0.0490   -4.8450   -3.6140 oh        1 MOL     -0.803609
    175 H82         0.5280   -5.6160   -3.9190 ho        1 MOL      0.399384
    176 H83        -0.6900   -4.7650   -4.2110 ho        1 MOL      0.399384
    177 O24         1.0430   -1.7190    0.9490 oh        1 MOL     -0.803609
    178 H84         1.4600   -0.8670    1.0880 ho        1 MOL      0.399384
    179 H85         0.1920   -1.6540    1.3850 ho        1 MOL      0.399384
    180 O25         1.4590   -1.9550   -2.8720 oh        1 MOL     -0.803609
    181 H86         1.1160   -1.0910   -2.6510 ho        1 MOL      0.399384
    182 H87         1.4500   -1.9820   -3.8310 ho        1 MOL      0.399384
    183 O26        -1.4100   -2.2450   -1.9960 oh        1 MOL     -0.803609
    184 H88        -1.9610   -1.5180   -1.7060 ho        1 MOL      0.399384
    185 H89        -1.7310   -2.4560   -2.8710 ho        1 MOL      0.399384
    186 O27         1.3370   -5.3280    0.8060 oh        1 MOL     -0.803609
    187 H90         1.6390   -5.1610    1.6970 ho        1 MOL      0.399384
    188 H91         1.0680   -6.2480    0.8100 ho        1 MOL      0.399384
@<TRIPOS>BOND
     1    1    2 1   
     2    1    4 1   
     3    1    5 1   
     4    1    6 1   
     5    2    3 2   
     6    2    7 1   
     7    7    8 1   
     8    7   15 1   
     9    8    9 1   
    10    8   11 1   
    11    8   16 1   
    12    9   10 2   
    13    9   19 1   
    14   11   12 1   
    15   11   17 1   
    16   11   18 1   
    17   12   13 1   
    18   12   14 1   
    19   19   20 1   
    20   19   28 1   
    21   20   21 1   
    22   20   23 1   
    23   20   29 1   
    24   21   22 2   
    25   21   41 1   
    26   23   24 1   
    27   23   30 1   
    28   23   31 1   
    29   24   25 1   
    30   24   32 1   
    31   24   33 1   
    32   25   26 1   
    33   25   34 1   
    34   25   35 1   
    35   26   27 1   
    36   26   36 1   
    37   26   37 1   
    38   27   38 1   
    39   27   39 1   
    40   27   40 1   
    41   41   42 1   
    42   41   49 1   
    43   42   43 1   
    44   42   45 1   
    45   42   50 1   
    46   43   44 2   
    47   43   53 1   
    48   45   46 1   
    49   45   51 1   
    50   45   52 1   
    51   46   47 1   
    52   46   48 1   
    53   53   54 1   
    54   53   57 1   
    55   54   55 1   
    56   54   58 1   
    57   54   59 1   
    58   55   56 2   
    59   55   60 1   
    60   60   61 1   
    61   60   68 1   
    62   61   62 1   
    63   61   64 1   
    64   61   69 1   
    65   62   63 2   
    66   62   74 1   
    67   64   65 1   
    68   64   70 1   
    69   64   71 1   
    70   65   66 1   
    71   65   67 2   
    72   66   72 1   
    73   66   73 1   
    74   74   75 1   
    75   74   78 1   
    76   75   76 1   
    77   75   79 1   
    78   75   80 1   
    79   76   77 2   
    80   76   81 1   
    81   81   82 1   
    82   81   93 1   
    83   82   83 1   
    84   82   85 1   
    85   82   94 1   
    86   83   84 2   
    87   83  102 1   
    88   85   86 1   
    89   85   95 1   
    90   85   96 1   
    91   86   87 ar  
    92   86   88 ar  
    93   87   89 ar  
    94   87   97 1   
    95   88   90 ar  
    96   88   98 1   
    97   89   91 ar  
    98   89   99 1   
    99   90   91 ar  
   100   90  100 1   
   101   91   92 1   
   102   92  101 1   
   103  102  103 1   
   104  102  110 1   
   105  103  104 1   
   106  103  106 1   
   107  103  111 1   
   108  104  105 2   
   109  104  121 1   
   110  106  107 1   
   111  106  108 1   
   112  106  112 1   
   113  107  109 1   
   114  107  113 1   
   115  107  114 1   
   116  108  115 1   
   117  108  116 1   
   118  108  117 1   
   119  109  118 1   
   120  109  119 1   
   121  109  120 1   
   122  121  122 1   
   123  121  127 1   
   124  122  123 1   
   125  122  125 1   
   126  122  128 1   
   127  123  124 2   
   128  123  132 1   
   129  125  126 1   
   130  125  129 1   
   131  125  130 1   
   132  126  131 1   
   133  132  133 1   
   134  132  137 1   
   135  133  134 1   
   136  133  136 1   
   137  133  138 1   
   138  134  135 2   
   139  134  142 1   
   140  136  139 1   
   141  136  140 1   
   142  136  141 1   
   143  142  143 1   
   144  142  147 1   
   145  143  144 1   
   146  143  146 1   
   147  143  148 1   
   148  144  145 2   
   149  144  152 1   
   150  146  149 1   
   151  146  150 1   
   152  146  151 1   
   153  152  153 1   
   154  152  161 1   
   155  153  154 1   
   156  153  156 1   
   157  153  162 1   
   158  154  155 2   
   159  154  167 1   
   160  156  157 1   
   161  156  163 1   
   162  156  164 1   
   163  157  158 1   
   164  157  165 1   
   165  157  166 1   
   166  158  159 1   
   167  158  160 1   
   168  167  168 1   
   169  167  172 1   
   170  168  169 1   
   171  168  170 1   
   172  168  171 1   
   173  174  175 1   
   174  174  176 1   
   175  177  178 1   
   176  177  179 1   
   177  180  181 1   
   178  180  182 1   
   179  183  184 1   
   180  183  185 1   
   181  186  187 1   
   182  186  188 1   
@<TRIPOS>SUBSTRUCTURE
     1 MOL         1 TEMP              0 ****  ****    0 ROOT
