@<TRIPOS>MOLECULE
MOL
  192   187     1     0     0
SMALL
resp


@<TRIPOS>ATOM
      1 C1         10.0930    0.5830    1.5030 c3        1 MOL     -0.674085
      2 C2          8.7740    0.4300    0.7740 c         1 MOL      0.798707
      3 O1          7.6530    0.7040    1.2480 o         1 MOL     -0.675051
      4 H1         10.3760    1.6350    1.5240 hc        1 MOL      0.175296
      5 H2          9.9900    0.2130    2.5230 hc        1 MOL      0.175296
      6 H3         10.8630    0.0110    0.9840 hc        1 MOL      0.175296
      7 N1          8.8810   -0.1400   -0.4470 n         1 MOL     -0.488179
      8 C3          7.7300   -0.4830   -1.3290 c3        1 MOL     -0.036168
      9 C4          7.0620   -1.8370   -1.0360 c         1 MOL      0.589368
     10 O2          6.9510   -2.6150   -1.9740 o         1 MOL     -0.500801
     11 C5          7.9800   -0.1190   -2.7950 c3        1 MOL     -0.102187
     12 C6          9.2640   -0.7990   -3.4600 c         1 MOL      0.628921
     13 O3          9.1840   -1.2970   -4.6260 o         1 MOL     -0.599284
     14 O4         10.3630   -0.5130   -2.9610 o         1 MOL     -0.599284
     15 H4          9.7520   -0.4850   -0.8110 hn        1 MOL      0.234080
     16 H5          6.9150    0.1610   -1.0090 h1        1 MOL      0.066377
     17 H6          8.0170    0.9650   -2.8810 hc        1 MOL      0.063658
     18 H7          7.1360   -0.3780   -3.4400 hc        1 MOL      0.063658
     19 N2          6.6990   -2.0890    0.2020 n         1 MOL     -0.445755
     20 C7          6.1940   -3.3980    0.5910 c3        1 MOL      0.090662
     21 C8          4.7760   -3.6120    0.1030 c         1 MOL      0.617631
     22 O5          4.5300   -4.6480   -0.4690 o         1 MOL     -0.561812
     23 C9          6.3770   -3.5840    2.1030 c3        1 MOL     -0.002756
     24 C10         7.8620   -3.5150    2.4220 c3        1 MOL     -0.218569
     25 C11         8.1320   -3.9490    3.8440 c3        1 MOL      0.224322
     26 C12         9.4560   -3.5480    4.4580 c3        1 MOL      0.085206
     27 N3          9.6020   -3.8260    5.9260 n4        1 MOL     -0.338319
     28 H8          6.7780   -1.2720    0.7940 hn        1 MOL      0.279247
     29 H9          6.7590   -4.2300    0.1700 h1        1 MOL      0.061297
     30 H10         5.8320   -4.4850    2.3320 hc        1 MOL      0.016913
     31 H11         5.8360   -2.8040    2.6410 hc        1 MOL      0.016913
     32 H12         8.2830   -2.5320    2.2040 hc        1 MOL      0.071231
     33 H13         8.5060   -4.1600    1.8180 hc        1 MOL      0.071231
     34 H14         7.9700   -5.0230    3.9300 hc        1 MOL     -0.029482
     35 H15         7.4300   -3.4320    4.5060 hc        1 MOL     -0.029482
     36 H16         9.6820   -2.5030    4.2510 hx        1 MOL      0.040658
     37 H17        10.1500   -4.1780    3.8900 hx        1 MOL      0.040658
     38 H18         9.5240   -4.8040    6.1640 hn        1 MOL      0.274649
     39 H19        10.5050   -3.5720    6.3090 hn        1 MOL      0.274649
     40 H20         8.9890   -3.2480    6.4700 hn        1 MOL      0.274649
     41 N4          3.7400   -2.7770    0.2880 n         1 MOL     -0.536167
     42 C13         3.8460   -1.4290    0.8740 c3        1 MOL      0.147605
     43 C14         3.9100   -0.3810   -0.2630 c         1 MOL      0.098083
     44 O6          3.8860   -0.5800   -1.4740 o         1 MOL     -0.355089
     45 C15         2.6890   -1.1600    1.8280 c3        1 MOL     -0.151637
     46 C16         1.3580   -1.4360    1.2880 c         1 MOL      0.817495
     47 O7          0.9660   -0.8580    0.2630 o         1 MOL     -0.745246
     48 O8          0.6070   -2.2320    1.8030 o         1 MOL     -0.745246
     49 H21         2.9100   -3.0360   -0.2310 hn        1 MOL      0.363961
     50 H22         4.7450   -1.2930    1.4770 h1        1 MOL      0.057890
     51 H23         2.6640   -0.1000    2.0600 hc        1 MOL      0.010986
     52 H24         2.8640   -1.8310    2.6780 hc        1 MOL      0.010986
     53 N5          4.1760    0.8410    0.1270 n         1 MOL     -0.209475
     54 C17         4.2530    2.0640   -0.6870 c3        1 MOL     -0.009723
     55 C18         2.8450    2.6330   -1.0090 c         1 MOL      0.425169
     56 O9          1.8250    1.9310   -0.7900 o         1 MOL     -0.317862
     57 H25         4.3220    0.9560    1.1110 hn        1 MOL      0.251715
     58 H26         4.8510    1.9410   -1.5950 h1        1 MOL      0.072511
     59 H27         4.8250    2.7980   -0.1160 h1        1 MOL      0.072511
     60 N6          2.8930    3.8510   -1.5820 n         1 MOL     -0.486166
     61 C19         1.7160    4.5700   -2.1560 c3        1 MOL      0.164634
     62 C20         2.0000    6.0810   -2.2990 c         1 MOL      0.532969
     63 O10         3.1450    6.4490   -2.2360 o         1 MOL     -0.543801
     64 C21         1.4590    4.0440   -3.5810 c3        1 MOL     -0.198808
     65 C22         1.0300    2.6020   -3.6720 c         1 MOL      0.617031
     66 O11        -0.0700    2.2360   -3.2180 o         1 MOL     -0.632191
     67 O12         1.8020    1.7970   -4.1960 o         1 MOL     -0.632191
     68 H28         3.7500    4.3870   -1.5600 hn        1 MOL      0.304182
     69 H29         0.8340    4.4610   -1.5170 h1        1 MOL      0.009744
     70 H30         2.3900    4.1720   -4.1390 hc        1 MOL      0.059973
     71 H31         0.7410    4.6990   -4.0750 hc        1 MOL      0.059973
     72 N7          1.0850    7.0350   -2.3940 n         1 MOL     -0.471464
     73 C23        -0.3420    6.8630   -2.5220 c3        1 MOL      0.030670
     74 C24        -0.9960    6.2530   -1.2700 c         1 MOL      0.667670
     75 O13        -0.5200    6.5220   -0.1930 o         1 MOL     -0.513700
     76 H32         1.4450    7.9680   -2.5600 hn        1 MOL      0.323678
     77 H33        -0.5950    6.3080   -3.4200 h1        1 MOL      0.045826
     78 H34        -0.8330    7.8230   -2.6790 h1        1 MOL      0.045826
     79 N8         -2.1810    5.5590   -1.3440 n         1 MOL     -0.747351
     80 C25        -2.8480    4.9470   -0.1860 c3        1 MOL      0.039186
     81 C26        -1.9220    3.8820    0.4840 c         1 MOL      0.598878
     82 O14        -1.3690    3.0030   -0.2620 o         1 MOL     -0.673175
     83 C27        -4.2730    4.4890   -0.5470 c3        1 MOL      0.432976
     84 C28        -4.8940    4.0110    0.7410 c3        1 MOL     -0.428211
     85 O15        -4.2270    3.3070   -1.3620 oh        1 MOL     -0.564447
     86 H35        -2.6910    5.5140   -2.2100 hn        1 MOL      0.347375
     87 H36        -3.0500    5.7050    0.5590 h1        1 MOL      0.075158
     88 H37        -4.8460    5.2920   -0.9950 h1        1 MOL      0.016987
     89 H38        -3.5960    3.4900   -2.0600 ho        1 MOL      0.349187
     90 H39        -4.7580    4.7470    1.5300 hc        1 MOL      0.101114
     91 H40        -5.9450    3.7740    0.5800 hc        1 MOL      0.101114
     92 H41        -4.4610    3.0540    1.0300 hc        1 MOL      0.101114
     93 N9         -1.5810    3.9420    1.7380 n         1 MOL     -0.404754
     94 C29        -0.8120    2.9390    2.5280 c3        1 MOL      0.098240
     95 C30        -1.3510    1.5360    2.3130 c         1 MOL      0.414361
     96 O16        -0.8030    0.8280    1.4410 o         1 MOL     -0.496726
     97 C31         0.7370    3.0950    2.2580 c3        1 MOL      0.343720
     98 C32         1.4250    4.5590    2.3830 c3        1 MOL     -0.155850
     99 C33         1.3900    2.2230    3.3420 c3        1 MOL     -0.345303
    100 C34         1.0310    5.5330    3.5210 c3        1 MOL     -0.234058
    101 H42        -1.9840    4.7270    2.2360 hn        1 MOL      0.249258
    102 H43        -1.0150    3.2440    3.5560 h1        1 MOL      0.048808
    103 H44         1.1320    2.7500    1.3020 hc        1 MOL     -0.127216
    104 H45         1.3150    5.1080    1.4460 hc        1 MOL      0.079850
    105 H46         2.5030    4.4040    2.4640 hc        1 MOL      0.079850
    106 H47         1.0450    2.4920    4.3370 hc        1 MOL      0.072755
    107 H48         0.9300    1.2530    3.1540 hc        1 MOL      0.072755
    108 H49         2.4760    2.1790    3.1990 hc        1 MOL      0.072755
    109 H50         1.3100    6.5300    3.1900 hc        1 MOL      0.060096
    110 H51        -0.0500    5.4610    3.7010 hc        1 MOL      0.060096
    111 H52         1.5740    5.2710    4.4320 hc        1 MOL      0.060096
    112 N10        -2.3770    1.0810    3.0550 n         1 MOL     -0.398723
    113 C35        -2.7720   -0.3330    3.1690 c3        1 MOL     -0.128632
    114 C36        -4.2870   -0.6090    3.0060 c         1 MOL      0.615150
    115 O17        -4.7080   -1.6640    3.2960 o         1 MOL     -0.586785
    116 C37        -2.1080   -1.1070    4.3590 c3        1 MOL      0.515586
    117 C38        -2.6130   -0.4920    5.6210 c3        1 MOL     -0.271880
    118 O18        -0.7140   -1.0940    4.2390 oh        1 MOL     -0.606679
    119 H53        -2.8290    1.7250    3.6790 hn        1 MOL      0.250264
    120 H54        -2.3380   -0.7900    2.2870 h1        1 MOL      0.097844
    121 H55        -2.3610   -2.1700    4.4040 h1        1 MOL     -0.012906
    122 H56        -0.5620   -1.2630    3.3100 ho        1 MOL      0.374237
    123 H57        -2.4100    0.5780    5.6540 hc        1 MOL      0.055389
    124 H58        -3.7030   -0.5350    5.6730 hc        1 MOL      0.055389
    125 H59        -2.1010   -0.8730    6.4990 hc        1 MOL      0.055389
    126 N11        -5.0560    0.3830    2.4600 n         1 MOL     -0.261585
    127 C39        -6.5470    0.2550    2.3390 c3        1 MOL      0.046006
    128 C40        -6.7930   -0.4690    1.0510 c         1 MOL      0.639238
    129 O19        -6.9970    0.1870    0.0300 o         1 MOL     -0.543256
    130 C41        -7.1980    1.6550    2.4690 c3        1 MOL      0.476252
    131 C42        -8.7610    1.5340    2.5600 c3        1 MOL     -0.194628
    132 O20        -6.7620    2.4650    3.5040 oh        1 MOL     -0.672912
    133 H60        -4.5640    1.2180    2.1890 hn        1 MOL      0.113928
    134 H61        -7.0220   -0.4470    3.0260 h1        1 MOL      0.012733
    135 H62        -7.1020    2.1240    1.4910 h1        1 MOL     -0.057223
    136 H63        -6.9920    3.3700    3.3020 ho        1 MOL      0.416393
    137 H64        -9.1290    1.6140    1.5400 hc        1 MOL      0.027966
    138 H65        -9.1730    0.6160    2.9790 hc        1 MOL      0.027966
    139 H66        -9.1310    2.4180    3.0820 hc        1 MOL      0.027966
    140 N12        -6.6020   -1.7600    1.0720 n         1 MOL     -0.718199
    141 C43        -6.4030   -2.7450   -0.0360 c3        1 MOL      0.070640
    142 C44        -5.1130   -2.4610   -0.8190 c         1 MOL      0.569434
    143 O21        -4.7790   -1.3090   -1.1340 o         1 MOL     -0.504326
    144 C45        -7.5840   -2.9010   -1.0870 c3        1 MOL     -0.080332
    145 C46        -8.9070   -2.9870   -0.3080 c3        1 MOL      0.024765
    146 C47        -9.9770   -3.5500   -1.2370 c3        1 MOL      0.026607
    147 C48       -11.4350   -3.3630   -0.7900 c3        1 MOL     -0.014770
    148 N13       -12.0460   -1.9990   -1.0460 n4        1 MOL     -0.233725
    149 H67        -6.3080   -2.0980    1.9710 hn        1 MOL      0.384070
    150 H68        -6.1950   -3.7210    0.3950 h1        1 MOL      0.071262
    151 H69        -7.5490   -3.7840   -1.7380 hc        1 MOL      0.045267
    152 H70        -7.4900   -2.1080   -1.8300 hc        1 MOL      0.045267
    153 H71        -9.1530   -2.0040    0.0890 hc        1 MOL      0.011999
    154 H72        -8.7780   -3.7740    0.4290 hc        1 MOL      0.011999
    155 H73        -9.7370   -4.6040   -1.2470 hc        1 MOL      0.038406
    156 H74        -9.9600   -3.1620   -2.2560 hc        1 MOL      0.038406
    157 H75       -11.5500   -3.6900    0.2380 hx        1 MOL      0.071815
    158 H76       -12.0470   -4.1240   -1.2750 hx        1 MOL      0.071815
    159 H77       -11.6900   -1.4950   -0.2530 hn        1 MOL      0.231076
    160 H78       -11.8440   -1.5240   -1.9170 hn        1 MOL      0.231076
    161 H79       -13.0410   -2.0950   -0.9690 hn        1 MOL      0.231076
    162 N14        -4.3830   -3.5270   -1.1170 n         1 MOL     -0.396270
    163 C49        -3.1520   -3.3710   -1.8960 c3        1 MOL      0.043274
    164 C50        -2.0510   -2.7310   -1.0890 c         1 MOL      0.386325
    165 O22        -1.5880   -1.6880   -1.4580 o         1 MOL     -0.541739
    166 C51        -2.7090   -4.7230   -2.5440 c3        1 MOL     -0.038834
    167 C52        -3.5350   -5.3370   -3.6850 c3        1 MOL     -0.178208
    168 C53        -3.2170   -6.7970   -3.9740 c         1 MOL      0.713244
    169 O23        -2.4210   -7.0040   -4.8690 o         1 MOL     -0.664727
    170 O24        -3.7520   -7.7010   -3.2640 o         1 MOL     -0.664727
    171 H80        -4.7730   -4.4280   -0.8690 hn        1 MOL      0.284378
    172 H81        -3.4000   -2.6970   -2.7170 h1        1 MOL      0.048244
    173 H82        -2.4800   -5.4050   -1.7310 hc        1 MOL      0.081778
    174 H83        -1.7070   -4.6630   -2.9680 hc        1 MOL      0.081778
    175 H84        -3.4200   -4.7290   -4.5790 hc        1 MOL      0.014103
    176 H85        -4.5830   -5.3650   -3.3910 hc        1 MOL      0.014103
    177 N15        -1.5670   -3.2260    0.1030 n         1 MOL     -0.315793
    178 C54        -2.0020   -4.4150    0.7950 c3        1 MOL      0.054462
    179 H86        -2.7850   -4.9050    0.2170 h1        1 MOL      0.006466
    180 H87        -1.1580   -5.0950    0.9140 h1        1 MOL      0.006466
    181 H88        -2.3910   -4.1430    1.7760 h1        1 MOL      0.006466
    182 H89        -0.7990   -2.7260    0.5430 hn        1 MOL      0.353499
    183 Ca1        -0.5300    0.6620   -1.2520 Ca        1 MOL      1.707093
    184 O25        -2.2750    0.2870   -3.1710 oh        1 MOL     -0.824057
    185 H90        -2.7740   -0.4030   -2.7330 ho        1 MOL      0.387393
    186 H91        -2.1560   -0.0330   -4.0660 ho        1 MOL      0.387393
    187 O26        -3.1210    0.6950   -0.5210 oh        1 MOL     -0.824057
    188 H92        -3.6230    1.4450   -0.8410 ho        1 MOL      0.387393
    189 H93        -3.7240   -0.0520   -0.6160 ho        1 MOL      0.387393
    190 O27         0.5130   -0.5730   -3.3980 oh        1 MOL     -0.824057
    191 H94         0.8300    0.1380   -3.9380 ho        1 MOL      0.387393
    192 H95        -0.0860   -1.0610   -3.9580 ho        1 MOL      0.387393
@<TRIPOS>BOND
     1    1    2 1   
     2    1    4 1   
     3    1    5 1   
     4    1    6 1   
     5    2    3 2   
     6    2    7 1   
     7    7    8 1   
     8    7   15 1   
     9    8    9 1   
    10    8   11 1   
    11    8   16 1   
    12    9   10 2   
    13    9   19 1   
    14   11   12 1   
    15   11   17 1   
    16   11   18 1   
    17   12   13 1   
    18   12   14 1   
    19   19   20 1   
    20   19   28 1   
    21   20   21 1   
    22   20   23 1   
    23   20   29 1   
    24   21   22 2   
    25   21   41 1   
    26   23   24 1   
    27   23   30 1   
    28   23   31 1   
    29   24   25 1   
    30   24   32 1   
    31   24   33 1   
    32   25   26 1   
    33   25   34 1   
    34   25   35 1   
    35   26   27 1   
    36   26   36 1   
    37   26   37 1   
    38   27   38 1   
    39   27   39 1   
    40   27   40 1   
    41   41   42 1   
    42   41   49 1   
    43   42   43 1   
    44   42   45 1   
    45   42   50 1   
    46   43   44 2   
    47   43   53 1   
    48   45   46 1   
    49   45   51 1   
    50   45   52 1   
    51   46   47 1   
    52   46   48 1   
    53   53   54 1   
    54   53   57 1   
    55   54   55 1   
    56   54   58 1   
    57   54   59 1   
    58   55   56 2   
    59   55   60 1   
    60   60   61 1   
    61   60   68 1   
    62   61   62 1   
    63   61   64 1   
    64   61   69 1   
    65   62   63 2   
    66   62   72 1   
    67   64   65 1   
    68   64   70 1   
    69   64   71 1   
    70   65   66 1   
    71   65   67 1   
    72   72   73 1   
    73   72   76 1   
    74   73   74 1   
    75   73   77 1   
    76   73   78 1   
    77   74   75 2   
    78   74   79 1   
    79   79   80 1   
    80   79   86 1   
    81   80   81 1   
    82   80   83 1   
    83   80   87 1   
    84   81   82 2   
    85   81   93 1   
    86   83   84 1   
    87   83   85 1   
    88   83   88 1   
    89   84   90 1   
    90   84   91 1   
    91   84   92 1   
    92   85   89 1   
    93   93   94 1   
    94   93  101 1   
    95   94   95 1   
    96   94   97 1   
    97   94  102 1   
    98   95   96 2   
    99   95  112 1   
   100   97   98 1   
   101   97   99 1   
   102   97  103 1   
   103   98  100 1   
   104   98  104 1   
   105   98  105 1   
   106   99  106 1   
   107   99  107 1   
   108   99  108 1   
   109  100  109 1   
   110  100  110 1   
   111  100  111 1   
   112  112  113 1   
   113  112  119 1   
   114  113  114 1   
   115  113  116 1   
   116  113  120 1   
   117  114  115 2   
   118  114  126 1   
   119  116  117 1   
   120  116  118 1   
   121  116  121 1   
   122  117  123 1   
   123  117  124 1   
   124  117  125 1   
   125  118  122 1   
   126  126  127 1   
   127  126  133 1   
   128  127  128 1   
   129  127  130 1   
   130  127  134 1   
   131  128  129 2   
   132  128  140 1   
   133  130  131 1   
   134  130  132 1   
   135  130  135 1   
   136  131  137 1   
   137  131  138 1   
   138  131  139 1   
   139  132  136 1   
   140  140  141 1   
   141  140  149 1   
   142  141  142 1   
   143  141  144 1   
   144  141  150 1   
   145  142  143 2   
   146  142  162 1   
   147  144  145 1   
   148  144  151 1   
   149  144  152 1   
   150  145  146 1   
   151  145  153 1   
   152  145  154 1   
   153  146  147 1   
   154  146  155 1   
   155  146  156 1   
   156  147  148 1   
   157  147  157 1   
   158  147  158 1   
   159  148  159 1   
   160  148  160 1   
   161  148  161 1   
   162  162  163 1   
   163  162  171 1   
   164  163  164 1   
   165  163  166 1   
   166  163  172 1   
   167  164  165 2   
   168  164  177 1   
   169  166  167 1   
   170  166  173 1   
   171  166  174 1   
   172  167  168 1   
   173  167  175 1   
   174  167  176 1   
   175  168  169 1   
   176  168  170 1   
   177  177  178 1   
   178  177  182 1   
   179  178  179 1   
   180  178  180 1   
   181  178  181 1   
   182  184  185 1   
   183  184  186 1   
   184  187  188 1   
   185  187  189 1   
   186  190  191 1   
   187  190  192 1   
@<TRIPOS>SUBSTRUCTURE
     1 MOL         1 TEMP              0 ****  ****    0 ROOT
