@<TRIPOS>MOLECULE
MOL
  182   178     1     0     0
SMALL
resp


@<TRIPOS>ATOM
      1 C1          1.2070   -4.2930    5.9020 c3        1 MOL     -0.355590
      2 C2          1.2690   -4.2980    4.3860 c         1 MOL      0.762316
      3 O1          0.3390   -4.5780    3.6830 o         1 MOL     -0.592755
      4 H1          2.0950   -3.8010    6.3000 hc        1 MOL      0.088547
      5 H2          0.3180   -3.7540    6.2280 hc        1 MOL      0.088547
      6 H3          1.1660   -5.3190    6.2690 hc        1 MOL      0.088547
      7 N1          2.4150   -3.8570    3.9080 n         1 MOL     -0.638496
      8 C3          2.7140   -3.4880    2.4940 c3        1 MOL      0.038722
      9 C4          3.1550   -4.6770    1.5970 c         1 MOL      0.550520
     10 O2          3.7370   -5.7090    1.9920 o         1 MOL     -0.542431
     11 C5          3.7830   -2.3680    2.5480 c3        1 MOL      0.018618
     12 C6          3.7340   -1.4430    1.2850 c         1 MOL      0.789752
     13 O3          3.9630   -0.2100    1.4840 o         1 MOL     -0.797798
     14 O4          3.6270   -1.8580    0.1330 o         1 MOL     -0.797798
     15 H4          3.1330   -3.8440    4.6150 hn        1 MOL      0.329965
     16 H5          1.8090   -3.0140    2.1060 h1        1 MOL     -0.031367
     17 H6          4.8010   -2.7510    2.6330 hc        1 MOL      0.017897
     18 H7          3.6570   -1.7330    3.4190 hc        1 MOL      0.017897
     19 N2          2.9800   -4.4420    0.3230 n         1 MOL     -0.305544
     20 C7          3.2420   -5.4640   -0.7040 c3        1 MOL     -0.227955
     21 C8          4.4790   -5.1210   -1.5060 c         1 MOL      0.636551
     22 O5          5.0710   -5.9400   -2.2050 o         1 MOL     -0.566043
     23 C9          2.0160   -5.7450   -1.5710 c3        1 MOL      0.042483
     24 C10         0.9120   -6.3130   -0.6850 c3        1 MOL      0.179690
     25 C11        -0.2230   -6.8620   -1.6080 c3        1 MOL     -0.085053
     26 C12        -1.3750   -7.5930   -0.8530 c3        1 MOL     -0.243015
     27 N3         -2.4820   -6.6600   -0.6250 n4        1 MOL     -0.168034
     28 H8          2.5010   -3.6110   -0.0030 hn        1 MOL      0.259816
     29 H9          3.4950   -6.3720   -0.1590 h1        1 MOL      0.142170
     30 H10         2.1760   -6.4620   -2.3730 hc        1 MOL      0.004046
     31 H11         1.6640   -4.8640   -2.1070 hc        1 MOL      0.004046
     32 H12         0.5160   -5.5350   -0.0210 hc        1 MOL     -0.014012
     33 H13         1.3540   -7.1130   -0.0930 hc        1 MOL     -0.014012
     34 H14         0.2050   -7.6450   -2.2450 hc        1 MOL      0.044478
     35 H15        -0.5320   -5.9820   -2.1690 hc        1 MOL      0.044478
     36 H16        -1.0120   -8.0740    0.0560 hx        1 MOL      0.174193
     37 H17        -1.8380   -8.2710   -1.5810 hx        1 MOL      0.174193
     38 H18        -3.3120   -7.1070   -0.2730 hn        1 MOL      0.240544
     39 H19        -2.1470   -6.0470    0.1040 hn        1 MOL      0.240544
     40 H20        -2.7280   -6.0790   -1.4230 hn        1 MOL      0.240544
     41 N4          4.8510   -3.8260   -1.4900 n         1 MOL     -0.452085
     42 C13         5.9660   -3.2490   -2.2900 c3        1 MOL      0.144965
     43 C14         7.0650   -2.5410   -1.4770 c         1 MOL      0.300441
     44 O6          8.1740   -2.3500   -1.9110 o         1 MOL     -0.492509
     45 C15         5.4140   -2.1910   -3.3480 c3        1 MOL     -0.356031
     46 C16         4.4790   -1.1830   -2.6830 c         1 MOL      0.878209
     47 O7          5.0780   -0.3020   -2.0690 o         1 MOL     -0.795000
     48 O8          3.2190   -1.3300   -2.8300 o         1 MOL     -0.795000
     49 H21         4.2130   -3.1610   -1.0620 hn        1 MOL      0.322926
     50 H22         6.4420   -4.0580   -2.8510 h1        1 MOL      0.106566
     51 H23         4.8870   -2.7950   -4.0810 hc        1 MOL      0.089822
     52 H24         6.2890   -1.6820   -3.7570 hc        1 MOL      0.089822
     53 N5          6.7340   -2.1090   -0.2560 n         1 MOL      0.029529
     54 C17         7.5330   -1.5300    0.7930 c3        1 MOL     -0.300406
     55 C18         7.7250   -0.0200    0.5900 c         1 MOL      0.577372
     56 O9          8.6900    0.5770    1.1390 o         1 MOL     -0.545115
     57 H25         5.7410   -2.1570   -0.0650 hn        1 MOL     -0.064570
     58 H26         8.5310   -1.9770    0.7940 h1        1 MOL      0.140416
     59 H27         7.0910   -1.6770    1.7820 h1        1 MOL      0.140416
     60 N6          6.9190    0.6430   -0.2390 n         1 MOL     -0.567492
     61 C19         7.1610    2.0010   -0.6070 c3        1 MOL      0.086004
     62 C20         5.8630    2.8050   -0.6220 c         1 MOL      0.492532
     63 O10         4.7570    2.2670   -0.4270 o         1 MOL     -0.490145
     64 C21         7.8070    1.9700   -2.0120 c3        1 MOL     -0.278887
     65 C22         9.0650    1.2810   -2.0020 c         1 MOL      0.744647
     66 N7          9.1300    0.0990   -2.6220 n         1 MOL     -0.891411
     67 O11        10.1120    1.7670   -1.5750 o         1 MOL     -0.570850
     68 H28         6.1400    0.1500   -0.6470 hn        1 MOL      0.672962
     69 H29         7.9070    2.5350   -0.0150 h1        1 MOL      0.073845
     70 H30         8.0030    2.9870   -2.3370 hc        1 MOL      0.057686
     71 H31         7.1030    1.5810   -2.7470 hc        1 MOL      0.057686
     72 H32         8.2980   -0.4410   -2.8070 hn        1 MOL      0.397712
     73 H33        10.0460   -0.3300   -2.6670 hn        1 MOL      0.397712
     74 N8          5.9520    4.1260   -0.7300 n         1 MOL     -0.442933
     75 C23         4.7920    4.9910   -0.8110 c3        1 MOL     -0.001148
     76 C24         3.7930    4.9320    0.3190 c         1 MOL      0.600316
     77 O12         4.0660    4.6900    1.4790 o         1 MOL     -0.509279
     78 H34         6.8570    4.5650   -0.8260 hn        1 MOL      0.330345
     79 H35         4.3440    4.8170   -1.7870 h1        1 MOL      0.050369
     80 H36         5.1320    6.0260   -0.8130 h1        1 MOL      0.050369
     81 N9          2.5570    5.2190    0.0200 n         1 MOL     -0.532995
     82 C25         1.3480    4.8810    0.8520 c3        1 MOL      0.105630
     83 C26         1.1750    3.3520    1.0090 c         1 MOL      0.505454
     84 O13         1.7340    2.6080    0.2300 o         1 MOL     -0.462390
     85 C27         0.0290    5.5420    0.2400 c3        1 MOL     -0.137343
     86 C28         0.1360    7.0700    0.1670 ca        1 MOL      0.099044
     87 C29        -0.2280    7.7970    1.2840 ca        1 MOL     -0.171943
     88 C30         0.3040    7.6160   -1.1150 ca        1 MOL     -0.171943
     89 C31        -0.5560    9.0990    1.1500 ca        1 MOL     -0.237506
     90 C32        -0.1800    8.9720   -1.2480 ca        1 MOL     -0.237506
     91 C33        -0.5800    9.6690   -0.1130 ca        1 MOL      0.340621
     92 O14        -0.9440   10.9850   -0.2130 oh        1 MOL     -0.498089
     93 H37         2.4090    5.5500   -0.9290 hn        1 MOL      0.256946
     94 H38         1.3620    5.3270    1.8510 h1        1 MOL      0.060463
     95 H39        -0.8180    5.3030    0.8790 hc        1 MOL      0.054234
     96 H40        -0.1120    5.0820   -0.7320 hc        1 MOL      0.054234
     97 H41        -0.3590    7.3550    2.2730 ha        1 MOL      0.137860
     98 H42         0.5280    6.9800   -1.9610 ha        1 MOL      0.137860
     99 H43        -0.9000    9.6260    2.0250 ha        1 MOL      0.156385
    100 H44        -0.2820    9.4450   -2.2050 ha        1 MOL      0.156385
    101 H45        -0.9590   11.3940    0.6500 ho        1 MOL      0.371124
    102 N10         0.4430    2.9160    2.0340 n         1 MOL     -0.540891
    103 C34         0.0800    1.5400    2.5410 c3        1 MOL     -0.052419
    104 C35        -0.1790    0.5480    1.4230 c         1 MOL      0.512965
    105 O15         0.7370    0.1080    0.7310 o         1 MOL     -0.478921
    106 C36         1.0860    1.0900    3.6000 c3        1 MOL      0.312811
    107 C37         0.8670   -0.3230    4.1370 c3        1 MOL      0.035510
    108 C38         1.4100    2.1290    4.7290 c3        1 MOL     -0.207990
    109 C39        -0.5090   -0.5170    4.6680 c3        1 MOL     -0.521297
    110 H46        -0.0060    3.6550    2.5650 hn        1 MOL      0.311967
    111 H47        -0.8150    1.7500    3.1280 h1        1 MOL      0.081641
    112 H48         2.0800    0.9630    3.1690 hc        1 MOL     -0.001838
    113 H49         1.6400   -0.3740    4.9010 hc        1 MOL      0.046073
    114 H50         1.0970   -1.0840    3.3970 hc        1 MOL      0.046073
    115 H51         2.2160    1.7150    5.3390 hc        1 MOL      0.044445
    116 H52         1.7640    3.0980    4.3910 hc        1 MOL      0.044445
    117 H53         0.5140    2.3960    5.2960 hc        1 MOL      0.044445
    118 H54        -0.4790   -1.4610    5.2130 hc        1 MOL      0.128188
    119 H55        -0.7280    0.3520    5.2810 hc        1 MOL      0.128188
    120 H56        -1.1810   -0.6930    3.8220 hc        1 MOL      0.128188
    121 N11        -1.4590    0.2300    1.2100 n         1 MOL     -0.421689
    122 C40        -1.9550   -0.8170    0.2730 c3        1 MOL      0.089304
    123 C41        -3.4930   -0.7060   -0.1030 c         1 MOL      0.496105
    124 O16        -3.8880   -1.4670   -1.0150 o         1 MOL     -0.516129
    125 C42        -1.7210   -2.2060    0.9080 c3        1 MOL      0.062993
    126 O17        -0.4100   -2.7010    0.7930 oh        1 MOL     -0.364593
    127 H57        -2.0670    0.7530    1.8210 hn        1 MOL      0.227540
    128 H58        -1.4990   -0.7720   -0.7170 h1        1 MOL      0.082396
    129 H59        -2.3550   -2.9000    0.3580 h1        1 MOL      0.036245
    130 H60        -1.9780   -2.1440    1.9620 h1        1 MOL      0.036245
    131 H61         0.0580   -2.1420    0.1710 ho        1 MOL      0.223060
    132 N12        -4.3410    0.1010    0.5460 n         1 MOL     -0.627405
    133 C43        -5.7370    0.1590    0.1190 c3        1 MOL      0.295521
    134 C44        -6.0270    0.8110   -1.2280 c         1 MOL      0.592271
    135 O18        -5.1570    1.4200   -1.8600 o         1 MOL     -0.583666
    136 C45        -6.4690    0.8870    1.2300 c3        1 MOL     -0.431003
    137 H62        -4.0150    0.7780    1.2270 hn        1 MOL      0.350085
    138 H63        -6.0780   -0.8820    0.1340 h1        1 MOL      0.086825
    139 H64        -6.3740    0.3130    2.1500 hc        1 MOL      0.127185
    140 H65        -6.1420    1.9220    1.3620 hc        1 MOL      0.127185
    141 H66        -7.5520    0.8290    1.1590 hc        1 MOL      0.127185
    142 N13        -7.1320    0.6480   -1.8690 n         1 MOL     -0.634808
    143 C46        -8.3460   -0.1430   -1.6370 c3        1 MOL      0.370898
    144 C47        -9.5880    0.5310   -2.1660 c         1 MOL      0.423951
    145 O19        -9.4920    1.1640   -3.1600 o         1 MOL     -0.512407
    146 C48        -8.3070   -1.4860   -2.4480 c3        1 MOL     -0.216584
    147 H67        -7.0280    0.9380   -2.8280 hn        1 MOL      0.344549
    148 H68        -8.4170   -0.1810   -0.5450 h1        1 MOL     -0.066133
    149 H69        -8.2460   -1.2660   -3.5130 hc        1 MOL      0.067788
    150 H70        -7.5670   -2.1700   -2.0340 hc        1 MOL      0.067788
    151 H71        -9.2850   -1.9700   -2.3480 hc        1 MOL      0.067788
    152 N14       -10.7390    0.3120   -1.5120 n         1 MOL     -0.411684
    153 C49       -11.0540   -0.2950   -0.2050 c3        1 MOL     -0.077978
    154 C50       -10.6720    0.6150    0.9640 c         1 MOL      0.447892
    155 O20       -10.2820    0.0920    2.0170 o         1 MOL     -0.530138
    156 C51       -12.5400   -0.7660   -0.0410 c3        1 MOL      0.023532
    157 C52       -12.9460   -1.7070   -1.1980 c3        1 MOL     -0.329001
    158 C53       -14.3600   -2.3340   -1.0610 c         1 MOL      0.738336
    159 O21       -14.5740   -3.2800   -0.2950 o         1 MOL     -0.664429
    160 O22       -15.2520   -1.9430   -1.8660 o         1 MOL     -0.664429
    161 H72       -11.5800    0.6960   -1.9180 hn        1 MOL      0.299967
    162 H73       -10.4020   -1.1560   -0.0970 h1        1 MOL      0.085546
    163 H74       -13.1110    0.1430    0.1290 hc        1 MOL      0.047138
    164 H75       -12.7050   -1.3040    0.8920 hc        1 MOL      0.047138
    165 H76       -12.1710   -2.4640   -1.2250 hc        1 MOL      0.077182
    166 H77       -12.8930   -1.2750   -2.1890 hc        1 MOL      0.077182
    167 N15       -10.6250    1.9340    0.7990 n         1 MOL     -0.262391
    168 C54        -9.8400    2.8860    1.6100 c3        1 MOL     -0.172749
    169 H78        -9.0250    2.3560    2.1040 h1        1 MOL      0.094334
    170 H79        -9.4290    3.6610    0.9640 h1        1 MOL      0.094334
    171 H80       -10.4840    3.3420    2.3620 h1        1 MOL      0.094334
    172 H81       -11.1930    2.2380    0.0220 hn        1 MOL      0.243045
    173 Ca1         2.6960    0.4650   -0.9220 Ca        1 MOL      1.673379
    174 O23         0.9960   -1.8440   -1.5200 oh        1 MOL     -0.844608
    175 H82         1.7690   -1.9550   -2.0770 ho        1 MOL      0.417946
    176 H83         0.3030   -2.3310   -1.9660 ho        1 MOL      0.417946
    177 O24         0.6530    1.3620   -2.3180 oh        1 MOL     -0.844608
    178 H84        -0.2750    1.5120   -2.1200 ho        1 MOL      0.417946
    179 H85         0.6860    1.2830   -3.2670 ho        1 MOL      0.417946
    180 O25         3.1490    2.4130   -2.7110 oh        1 MOL     -0.844608
    181 H86         2.5230    3.1280   -2.7850 ho        1 MOL      0.417946
    182 H87         3.7270    2.5120   -3.4680 ho        1 MOL      0.417946
@<TRIPOS>BOND
     1    1    2 1   
     2    1    4 1   
     3    1    5 1   
     4    1    6 1   
     5    2    3 2   
     6    2    7 1   
     7    7    8 1   
     8    7   15 1   
     9    8    9 1   
    10    8   11 1   
    11    8   16 1   
    12    9   10 2   
    13    9   19 1   
    14   11   12 1   
    15   11   17 1   
    16   11   18 1   
    17   12   13 1   
    18   12   14 1   
    19   19   20 1   
    20   19   28 1   
    21   20   21 1   
    22   20   23 1   
    23   20   29 1   
    24   21   22 2   
    25   21   41 1   
    26   23   24 1   
    27   23   30 1   
    28   23   31 1   
    29   24   25 1   
    30   24   32 1   
    31   24   33 1   
    32   25   26 1   
    33   25   34 1   
    34   25   35 1   
    35   26   27 1   
    36   26   36 1   
    37   26   37 1   
    38   27   38 1   
    39   27   39 1   
    40   27   40 1   
    41   41   42 1   
    42   41   49 1   
    43   42   43 1   
    44   42   45 1   
    45   42   50 1   
    46   43   44 2   
    47   43   53 1   
    48   45   46 1   
    49   45   51 1   
    50   45   52 1   
    51   46   47 1   
    52   46   48 1   
    53   53   54 1   
    54   53   57 1   
    55   54   55 1   
    56   54   58 1   
    57   54   59 1   
    58   55   56 2   
    59   55   60 1   
    60   60   61 1   
    61   60   68 1   
    62   61   62 1   
    63   61   64 1   
    64   61   69 1   
    65   62   63 2   
    66   62   74 1   
    67   64   65 1   
    68   64   70 1   
    69   64   71 1   
    70   65   66 1   
    71   65   67 2   
    72   66   72 1   
    73   66   73 1   
    74   74   75 1   
    75   74   78 1   
    76   75   76 1   
    77   75   79 1   
    78   75   80 1   
    79   76   77 2   
    80   76   81 1   
    81   81   82 1   
    82   81   93 1   
    83   82   83 1   
    84   82   85 1   
    85   82   94 1   
    86   83   84 2   
    87   83  102 1   
    88   85   86 1   
    89   85   95 1   
    90   85   96 1   
    91   86   87 ar  
    92   86   88 ar  
    93   87   89 ar  
    94   87   97 1   
    95   88   90 ar  
    96   88   98 1   
    97   89   91 ar  
    98   89   99 1   
    99   90   91 ar  
   100   90  100 1   
   101   91   92 1   
   102   92  101 1   
   103  102  103 1   
   104  102  110 1   
   105  103  104 1   
   106  103  106 1   
   107  103  111 1   
   108  104  105 2   
   109  104  121 1   
   110  106  107 1   
   111  106  108 1   
   112  106  112 1   
   113  107  109 1   
   114  107  113 1   
   115  107  114 1   
   116  108  115 1   
   117  108  116 1   
   118  108  117 1   
   119  109  118 1   
   120  109  119 1   
   121  109  120 1   
   122  121  122 1   
   123  121  127 1   
   124  122  123 1   
   125  122  125 1   
   126  122  128 1   
   127  123  124 2   
   128  123  132 1   
   129  125  126 1   
   130  125  129 1   
   131  125  130 1   
   132  126  131 1   
   133  132  133 1   
   134  132  137 1   
   135  133  134 1   
   136  133  136 1   
   137  133  138 1   
   138  134  135 2   
   139  134  142 1   
   140  136  139 1   
   141  136  140 1   
   142  136  141 1   
   143  142  143 1   
   144  142  147 1   
   145  143  144 1   
   146  143  146 1   
   147  143  148 1   
   148  144  145 2   
   149  144  152 1   
   150  146  149 1   
   151  146  150 1   
   152  146  151 1   
   153  152  153 1   
   154  152  161 1   
   155  153  154 1   
   156  153  156 1   
   157  153  162 1   
   158  154  155 2   
   159  154  167 1   
   160  156  157 1   
   161  156  163 1   
   162  156  164 1   
   163  157  158 1   
   164  157  165 1   
   165  157  166 1   
   166  158  159 1   
   167  158  160 1   
   168  167  168 1   
   169  167  172 1   
   170  168  169 1   
   171  168  170 1   
   172  168  171 1   
   173  174  175 1   
   174  174  176 1   
   175  177  178 1   
   176  177  179 1   
   177  180  181 1   
   178  180  182 1   
@<TRIPOS>SUBSTRUCTURE
     1 MOL         1 TEMP              0 ****  ****    0 ROOT
