@<TRIPOS>MOLECULE
MOL
  182   178     1     0     0
SMALL
resp


@<TRIPOS>ATOM
      1 C1          0.2950   -4.6060    5.3530 c3        1 MOL     -0.479994
      2 C2          0.4410   -4.2420    3.8730 c         1 MOL      0.770869
      3 O1         -0.5570   -3.9700    3.2440 o         1 MOL     -0.572644
      4 H1          1.1080   -5.2700    5.6450 hc        1 MOL      0.136988
      5 H2          0.3330   -3.6990    5.9550 hc        1 MOL      0.136988
      6 H3         -0.6590   -5.1080    5.5120 hc        1 MOL      0.136988
      7 N1          1.7280   -4.1420    3.4050 n         1 MOL     -0.661483
      8 C3          2.1500   -3.5900    2.1400 c3        1 MOL      0.196345
      9 C4          2.0630   -4.7300    1.0930 c         1 MOL      0.466612
     10 O2          2.3240   -5.9420    1.3510 o         1 MOL     -0.548857
     11 C5          3.4580   -2.8300    2.2260 c3        1 MOL     -0.098114
     12 C6          3.4670   -1.6480    1.2490 c         1 MOL      0.632255
     13 O3          3.5430   -0.5140    1.7520 o         1 MOL     -0.690398
     14 O4          3.3360   -1.7230   -0.0240 o         1 MOL     -0.690398
     15 H4          2.4700   -4.3180    4.0790 hn        1 MOL      0.332894
     16 H5          1.3360   -2.9390    1.8280 h1        1 MOL     -0.109059
     17 H6          4.2840   -3.5140    2.0510 hc        1 MOL      0.059823
     18 H7          3.6840   -2.3540    3.1790 hc        1 MOL      0.059823
     19 N2          1.8410   -4.3300   -0.1590 n         1 MOL     -0.019658
     20 C7          2.0480   -5.0130   -1.4100 c3        1 MOL      0.016202
     21 C8          3.3310   -4.8100   -2.1890 c         1 MOL      0.419350
     22 O5          3.9400   -5.7750   -2.5640 o         1 MOL     -0.530609
     23 C9          0.8190   -4.9380   -2.2760 c3        1 MOL     -0.080240
     24 C10        -0.3740   -5.6140   -1.5820 c3        1 MOL      0.023623
     25 C11        -1.6840   -5.4570   -2.4370 c3        1 MOL      0.035496
     26 C12        -2.6720   -6.4770   -2.1210 c3        1 MOL      0.195848
     27 N3         -3.8650   -6.5460   -3.0160 n4        1 MOL     -0.254746
     28 H8          1.7510   -3.3270   -0.1880 hn        1 MOL     -0.020072
     29 H9          2.1640   -6.0390   -1.0400 h1        1 MOL      0.076621
     30 H10         1.0410   -5.4370   -3.2170 hc        1 MOL      0.019624
     31 H11         0.5860   -3.8930   -2.4590 hc        1 MOL      0.019624
     32 H12        -0.5390   -5.2520   -0.5690 hc        1 MOL      0.012068
     33 H13        -0.0610   -6.6390   -1.4290 hc        1 MOL      0.012068
     34 H14        -1.4340   -5.6480   -3.4850 hc        1 MOL     -0.006029
     35 H15        -2.1210   -4.4710   -2.3110 hc        1 MOL     -0.006029
     36 H16        -2.9840   -6.3450   -1.0810 hx        1 MOL      0.018814
     37 H17        -2.2470   -7.4790   -2.1310 hx        1 MOL      0.018814
     38 H18        -4.1840   -5.6120   -3.2340 hn        1 MOL      0.236930
     39 H19        -3.6750   -6.9680   -3.9140 hn        1 MOL      0.236930
     40 H20        -4.5920   -7.1050   -2.5930 hn        1 MOL      0.236930
     41 N4          3.7940   -3.6080   -2.1320 n         1 MOL     -0.162797
     42 C13         5.1760   -3.2150   -2.6640 c3        1 MOL      0.048097
     43 C14         6.2380   -3.2030   -1.5600 c         1 MOL      0.459212
     44 O6          7.4130   -3.3880   -1.8510 o         1 MOL     -0.563004
     45 C15         5.1260   -1.9070   -3.5620 c3        1 MOL     -0.358339
     46 C16         4.4190   -0.7360   -2.8170 c         1 MOL      0.778320
     47 O7          4.9290   -0.1840   -1.8120 o         1 MOL     -0.752222
     48 O8          3.2420   -0.3850   -3.0520 o         1 MOL     -0.752222
     49 H21         3.2860   -2.8840   -1.6480 hn        1 MOL      0.129964
     50 H22         5.4100   -4.0720   -3.2920 h1        1 MOL      0.096140
     51 H23         4.5750   -2.0690   -4.4870 hc        1 MOL      0.113440
     52 H24         6.1350   -1.5590   -3.8030 hc        1 MOL      0.113440
     53 N5          5.8940   -2.8740   -0.3270 n         1 MOL     -0.046048
     54 C17         6.8010   -2.7350    0.7830 c3        1 MOL     -0.152808
     55 C18         7.3320   -1.2940    1.0760 c         1 MOL      0.514318
     56 O9          8.2240   -1.1960    1.9100 o         1 MOL     -0.554748
     57 H25         4.9000   -2.7890   -0.1790 hn        1 MOL     -0.022251
     58 H26         7.6110   -3.4550    0.6980 h1        1 MOL      0.098000
     59 H27         6.3030   -3.0810    1.6920 h1        1 MOL      0.098000
     60 N6          6.8200   -0.2560    0.4030 n         1 MOL     -0.288466
     61 C19         7.3320    1.1830    0.6820 c3        1 MOL      0.166496
     62 C20         6.1660    2.1580    0.7780 c         1 MOL      0.388934
     63 O10         5.0280    1.9000    0.3000 o         1 MOL     -0.411145
     64 C21         8.3900    1.6280   -0.3340 c3        1 MOL     -0.255392
     65 C22         7.7060    1.8480   -1.7230 c         1 MOL      0.570699
     66 N7          7.8890    0.9650   -2.6150 n         1 MOL     -0.706031
     67 O11         6.9440    2.8160   -1.8590 o         1 MOL     -0.558859
     68 H28         6.1110   -0.3970   -0.3050 hn        1 MOL      0.216658
     69 H29         7.9030    1.2090    1.6100 h1        1 MOL      0.046495
     70 H30         9.1580    0.8570   -0.3250 hc        1 MOL      0.083656
     71 H31         8.8670    2.5680   -0.0410 hc        1 MOL      0.083656
     72 H32         8.5690    0.2640   -2.3620 hn        1 MOL      0.379202
     73 H33         7.3100    1.0740   -3.4340 hn        1 MOL      0.379202
     74 N8          6.4680    3.2870    1.3430 n         1 MOL     -0.431690
     75 C23         5.6180    4.4670    1.2860 c3        1 MOL     -0.034962
     76 C24         4.3370    4.2790    2.0180 c         1 MOL      0.518523
     77 O12         4.2260    3.6800    3.1060 o         1 MOL     -0.484556
     78 H34         7.4190    3.4450    1.6310 hn        1 MOL      0.332993
     79 H35         5.5680    4.7810    0.2390 h1        1 MOL      0.089104
     80 H36         6.1820    5.2750    1.7490 h1        1 MOL      0.089104
     81 N9          3.3000    4.9270    1.4340 n         1 MOL     -0.466021
     82 C25         1.8750    4.7920    1.8940 c3        1 MOL      0.086556
     83 C26         1.2920    3.3650    1.7160 c         1 MOL      0.883525
     84 O13         1.7630    2.7110    0.8070 o         1 MOL     -0.862434
     85 C27         0.9100    5.8810    1.2780 c3        1 MOL     -0.079590
     86 C28         1.2230    6.4090   -0.1190 ca        1 MOL      0.052431
     87 C29         1.4990    5.5310   -1.0970 ca        1 MOL     -0.142897
     88 C30         1.2360    7.7950   -0.3790 ca        1 MOL     -0.142897
     89 C31         1.7010    6.0000   -2.3760 ca        1 MOL     -0.227360
     90 C32         1.4780    8.3260   -1.6060 ca        1 MOL     -0.227360
     91 C33         1.7570    7.3690   -2.6360 ca        1 MOL      0.282545
     92 O14         1.8580    7.8580   -3.8770 oh        1 MOL     -0.446634
     93 H37         3.4670    5.4710    0.6040 hn        1 MOL      0.264263
     94 H38         1.8950    4.8950    2.9870 h1        1 MOL      0.037915
     95 H39         0.8860    6.7360    1.9600 hc        1 MOL      0.028124
     96 H40        -0.0970    5.4860    1.3450 hc        1 MOL      0.028124
     97 H41         1.4940    4.4710   -0.9010 ha        1 MOL      0.131138
     98 H42         1.0240    8.4470    0.4570 ha        1 MOL      0.131138
     99 H43         1.7740    5.3490   -3.2380 ha        1 MOL      0.155641
    100 H44         1.5050    9.3890   -1.8040 ha        1 MOL      0.155641
    101 H45         1.5630    7.2000   -4.5180 ho        1 MOL      0.347709
    102 N10         0.4280    2.9030    2.6260 n         1 MOL     -0.762307
    103 C34         0.1180    1.4610    2.7790 c3        1 MOL      0.230059
    104 C35        -0.1460    0.6400    1.5130 c         1 MOL      0.262309
    105 O15         0.8620    0.1590    0.9080 o         1 MOL     -0.033442
    106 C36         1.1990    0.6630    3.7020 c3        1 MOL      0.356496
    107 C37         0.8500   -0.7750    4.0190 c3        1 MOL     -0.505332
    108 C38         1.5910    1.4130    4.9750 c3        1 MOL     -0.179957
    109 C39        -0.4080   -0.8060    4.9110 c3        1 MOL     -0.130105
    110 H46        -0.1060    3.5370    3.1820 hn        1 MOL      0.349506
    111 H47        -0.8290    1.3730    3.3020 h1        1 MOL      0.022671
    112 H48         2.1550    0.5900    3.1690 hc        1 MOL     -0.007840
    113 H49         1.6800   -1.1770    4.5950 hc        1 MOL      0.195765
    114 H50         0.6500   -1.4180    3.1580 hc        1 MOL      0.195765
    115 H51         0.6290    1.7890    5.3360 hc        1 MOL      0.033734
    116 H52         2.2780    0.8800    5.6360 hc        1 MOL      0.033734
    117 H53         2.1330    2.2980    4.6240 hc        1 MOL      0.033734
    118 H54        -0.3410   -0.2160    5.8220 hc        1 MOL      0.032552
    119 H55        -1.2690   -0.4130    4.3650 hc        1 MOL      0.032552
    120 H56        -0.6120   -1.8410    5.1770 hc        1 MOL      0.032552
    121 N11        -1.3920    0.2900    1.2590 n         1 MOL     -0.417837
    122 C40        -1.6560   -0.6440    0.1450 c3        1 MOL     -0.197298
    123 C41        -3.1120   -0.7470   -0.3620 c         1 MOL      0.477566
    124 O16        -3.4580   -1.4640   -1.3420 o         1 MOL     -0.523225
    125 C42        -1.2310   -2.0660    0.4680 c3        1 MOL      0.544299
    126 O17        -2.0450   -2.4940    1.5720 oh        1 MOL     -0.652759
    127 H57        -2.0200    0.7230    1.9310 hn        1 MOL      0.291599
    128 H58        -1.0070   -0.3830   -0.6840 h1        1 MOL      0.139747
    129 H59        -0.1940   -2.0280    0.7930 h1        1 MOL     -0.088607
    130 H60        -1.2730   -2.6990   -0.4220 h1        1 MOL     -0.088607
    131 H61        -1.5500   -2.9370    2.2690 ho        1 MOL      0.407377
    132 N12        -4.0700   -0.0780    0.3550 n         1 MOL     -0.412155
    133 C43        -5.4160    0.1710   -0.1430 c3        1 MOL     -0.010449
    134 C44        -5.4410    0.9230   -1.5260 c         1 MOL      0.672838
    135 O18        -4.4580    1.5280   -1.9590 o         1 MOL     -0.551024
    136 C45        -6.2830    0.7800    1.0130 c3        1 MOL     -0.214665
    137 H62        -3.7040    0.2840    1.2230 hn        1 MOL      0.285143
    138 H63        -5.8200   -0.8060   -0.3900 h1        1 MOL      0.113425
    139 H64        -6.4280    0.1160    1.8640 hc        1 MOL      0.080576
    140 H65        -5.8170    1.6980    1.3800 hc        1 MOL      0.080576
    141 H66        -7.2590    1.1480    0.6960 hc        1 MOL      0.080576
    142 N13        -6.5960    1.0070   -2.2530 n         1 MOL     -0.729332
    143 C46        -7.7990    0.2400   -2.1150 c3        1 MOL      0.581942
    144 C47        -9.0870    1.0530   -2.5190 c         1 MOL      0.257705
    145 O19        -8.9750    1.8570   -3.4620 o         1 MOL     -0.503616
    146 C48        -7.6780   -1.0090   -2.8970 c3        1 MOL     -0.224517
    147 H67        -6.5130    1.5410   -3.1060 hn        1 MOL      0.344008
    148 H68        -7.9390   -0.0840   -1.0780 h1        1 MOL     -0.084077
    149 H69        -7.7110   -0.9580   -3.9870 hc        1 MOL      0.051118
    150 H70        -6.6880   -1.4140   -2.6480 hc        1 MOL      0.051118
    151 H71        -8.4320   -1.6700   -2.4670 hc        1 MOL      0.051118
    152 N14       -10.2840    0.9010   -1.9440 n         1 MOL     -0.295151
    153 C49       -10.4910    0.3800   -0.5660 c3        1 MOL     -0.429142
    154 C50        -9.7860    1.2290    0.5000 c         1 MOL      0.620730
    155 O20        -9.3270    0.7430    1.4960 o         1 MOL     -0.523098
    156 C51       -11.9960    0.2880   -0.2760 c3        1 MOL      0.065636
    157 C52       -12.2960   -0.1080    1.2050 c3        1 MOL     -0.160777
    158 C53       -13.7600   -0.5330    1.4390 c         1 MOL      0.614822
    159 O21       -14.6530    0.3850    1.5520 o         1 MOL     -0.632354
    160 O22       -14.1440   -1.6810    1.1840 o         1 MOL     -0.632354
    161 H72       -11.0340    1.4340   -2.3750 hn        1 MOL      0.293873
    162 H73       -10.1630   -0.6540   -0.4450 h1        1 MOL      0.215331
    163 H74       -12.4020   -0.4680   -0.9610 hc        1 MOL      0.049742
    164 H75       -12.5210    1.2340   -0.3900 hc        1 MOL      0.049742
    165 H76       -12.1140    0.7470    1.8640 hc        1 MOL      0.033227
    166 H77       -11.6520   -0.9130    1.5810 hc        1 MOL      0.033227
    167 N15        -9.6530    2.5510    0.2750 n         1 MOL     -0.291083
    168 C54        -8.9950    3.4780    1.2240 c3        1 MOL     -0.273826
    169 H78        -9.4150    4.4770    1.1070 h1        1 MOL      0.119977
    170 H79        -9.1610    3.1320    2.2450 h1        1 MOL      0.119977
    171 H80        -7.9250    3.5080    1.0200 h1        1 MOL      0.119977
    172 H81       -10.3110    2.8910   -0.4100 hn        1 MOL      0.274397
    173 Ca1         2.7850    0.7420   -0.7420 Ca        1 MOL      1.706525
    174 O23         3.7710    2.7160   -2.1680 oh        1 MOL     -0.794275
    175 H82         3.5860    3.2530   -2.9440 ho        1 MOL      0.385093
    176 H83         4.7210    2.6150   -2.1770 ho        1 MOL      0.385093
    177 O24         0.4540    1.8440   -1.6050 oh        1 MOL     -0.794275
    178 H84        -0.2510    1.4520   -2.1250 ho        1 MOL      0.385093
    179 H85         0.0390    2.5710   -1.1430 ho        1 MOL      0.385093
    180 O25         0.9330   -1.3770   -1.9640 oh        1 MOL     -0.794275
    181 H86         1.4310   -1.3950   -2.7790 ho        1 MOL      0.385093
    182 H87         0.0870   -1.7690   -2.1840 ho        1 MOL      0.385093
@<TRIPOS>BOND
     1    1    2 1   
     2    1    4 1   
     3    1    5 1   
     4    1    6 1   
     5    2    3 2   
     6    2    7 1   
     7    7    8 1   
     8    7   15 1   
     9    8    9 1   
    10    8   11 1   
    11    8   16 1   
    12    9   10 2   
    13    9   19 1   
    14   11   12 1   
    15   11   17 1   
    16   11   18 1   
    17   12   13 1   
    18   12   14 1   
    19   19   20 1   
    20   19   28 1   
    21   20   21 1   
    22   20   23 1   
    23   20   29 1   
    24   21   22 2   
    25   21   41 1   
    26   23   24 1   
    27   23   30 1   
    28   23   31 1   
    29   24   25 1   
    30   24   32 1   
    31   24   33 1   
    32   25   26 1   
    33   25   34 1   
    34   25   35 1   
    35   26   27 1   
    36   26   36 1   
    37   26   37 1   
    38   27   38 1   
    39   27   39 1   
    40   27   40 1   
    41   41   42 1   
    42   41   49 1   
    43   42   43 1   
    44   42   45 1   
    45   42   50 1   
    46   43   44 2   
    47   43   53 1   
    48   45   46 1   
    49   45   51 1   
    50   45   52 1   
    51   46   47 1   
    52   46   48 1   
    53   53   54 1   
    54   53   57 1   
    55   54   55 1   
    56   54   58 1   
    57   54   59 1   
    58   55   56 2   
    59   55   60 1   
    60   60   61 1   
    61   60   68 1   
    62   61   62 1   
    63   61   64 1   
    64   61   69 1   
    65   62   63 2   
    66   62   74 1   
    67   64   65 1   
    68   64   70 1   
    69   64   71 1   
    70   65   66 1   
    71   65   67 2   
    72   66   72 1   
    73   66   73 1   
    74   74   75 1   
    75   74   78 1   
    76   75   76 1   
    77   75   79 1   
    78   75   80 1   
    79   76   77 2   
    80   76   81 1   
    81   81   82 1   
    82   81   93 1   
    83   82   83 1   
    84   82   85 1   
    85   82   94 1   
    86   83   84 2   
    87   83  102 1   
    88   85   86 1   
    89   85   95 1   
    90   85   96 1   
    91   86   87 ar  
    92   86   88 ar  
    93   87   89 ar  
    94   87   97 1   
    95   88   90 ar  
    96   88   98 1   
    97   89   91 ar  
    98   89   99 1   
    99   90   91 ar  
   100   90  100 1   
   101   91   92 1   
   102   92  101 1   
   103  102  103 1   
   104  102  110 1   
   105  103  104 1   
   106  103  106 1   
   107  103  111 1   
   108  104  105 2   
   109  104  121 1   
   110  106  107 1   
   111  106  108 1   
   112  106  112 1   
   113  107  109 1   
   114  107  113 1   
   115  107  114 1   
   116  108  115 1   
   117  108  116 1   
   118  108  117 1   
   119  109  118 1   
   120  109  119 1   
   121  109  120 1   
   122  121  122 1   
   123  121  127 1   
   124  122  123 1   
   125  122  125 1   
   126  122  128 1   
   127  123  124 2   
   128  123  132 1   
   129  125  126 1   
   130  125  129 1   
   131  125  130 1   
   132  126  131 1   
   133  132  133 1   
   134  132  137 1   
   135  133  134 1   
   136  133  136 1   
   137  133  138 1   
   138  134  135 2   
   139  134  142 1   
   140  136  139 1   
   141  136  140 1   
   142  136  141 1   
   143  142  143 1   
   144  142  147 1   
   145  143  144 1   
   146  143  146 1   
   147  143  148 1   
   148  144  145 2   
   149  144  152 1   
   150  146  149 1   
   151  146  150 1   
   152  146  151 1   
   153  152  153 1   
   154  152  161 1   
   155  153  154 1   
   156  153  156 1   
   157  153  162 1   
   158  154  155 2   
   159  154  167 1   
   160  156  157 1   
   161  156  163 1   
   162  156  164 1   
   163  157  158 1   
   164  157  165 1   
   165  157  166 1   
   166  158  159 1   
   167  158  160 1   
   168  167  168 1   
   169  167  172 1   
   170  168  169 1   
   171  168  170 1   
   172  168  171 1   
   173  174  175 1   
   174  174  176 1   
   175  177  178 1   
   176  177  179 1   
   177  180  181 1   
   178  180  182 1   
@<TRIPOS>SUBSTRUCTURE
     1 MOL         1 TEMP              0 ****  ****    0 ROOT
