@<TRIPOS>MOLECULE
MOL
  175   173     1     0     0
SMALL
resp


@<TRIPOS>ATOM
      1 C1         -7.4710    7.7060    1.6230 c3        1 MOL     -0.364927
      2 C2         -8.2710    6.9250    0.6050 c         1 MOL      0.771913
      3 O1         -8.2670    7.1740   -0.5720 o         1 MOL     -0.611265
      4 H1         -6.9070    7.0150    2.2490 hc        1 MOL      0.080933
      5 H2         -6.7810    8.3750    1.1090 hc        1 MOL      0.080933
      6 H3         -8.1470    8.2910    2.2460 hc        1 MOL      0.080933
      7 N1         -9.0680    6.0010    1.0810 n         1 MOL     -0.666806
      8 C3         -9.7910    4.9200    0.3660 c3        1 MOL      0.432885
      9 C4         -8.8960    3.8660   -0.4150 c         1 MOL      0.538661
     10 O2         -9.4420    2.9400   -1.0250 o         1 MOL     -0.505022
     11 C5        -10.8100    4.2390    1.2950 c3        1 MOL     -0.399337
     12 C6        -11.9940    3.6110    0.5500 c         1 MOL      0.746306
     13 O3        -12.4620    2.5630    1.0940 o         1 MOL     -0.732214
     14 O4        -12.4120    4.0790   -0.5150 o         1 MOL     -0.732214
     15 H4         -9.1570    5.9410    2.0830 hn        1 MOL      0.277320
     16 H5        -10.3100    5.3590   -0.4800 h1        1 MOL     -0.000208
     17 H6        -11.2990    4.9590    1.9490 hc        1 MOL      0.059954
     18 H7        -10.2100    3.5140    1.8430 hc        1 MOL      0.059954
     19 N2         -7.5380    3.9000   -0.3920 n         1 MOL     -0.726585
     20 C7         -6.6990    2.9220   -1.1480 c3        1 MOL      0.505028
     21 C8         -5.6000    2.3290   -0.2330 c         1 MOL      0.489274
     22 O5         -5.0880    3.0390    0.6070 o         1 MOL     -0.554768
     23 C9         -6.1770    3.6590   -2.3440 c3        1 MOL     -0.312197
     24 H8         -7.0920    4.6260    0.1440 hn        1 MOL      0.304916
     25 H9         -7.2830    2.1040   -1.5870 h1        1 MOL     -0.039953
     26 H10        -5.4550    3.0350   -2.8860 hc        1 MOL      0.082466
     27 H11        -7.0080    3.9560   -2.9920 hc        1 MOL      0.082466
     28 H12        -5.6350    4.5380   -1.9920 hc        1 MOL      0.082466
     29 N3         -5.2220    1.0720   -0.2760 n         1 MOL     -0.479968
     30 C10        -5.5880    0.0370   -1.2880 c3        1 MOL     -0.001209
     31 C11        -5.6890   -1.3660   -0.5370 c         1 MOL      0.537086
     32 O6         -4.9050   -1.5740    0.3650 o         1 MOL     -0.528739
     33 C12        -4.5270   -0.0920   -2.4180 c3        1 MOL     -0.063595
     34 C13        -3.0990   -0.3990   -2.0300 c         1 MOL      0.643574
     35 O7         -2.3980    0.4940   -1.5800 o         1 MOL     -0.670201
     36 O8         -2.6510   -1.5540   -2.2410 o         1 MOL     -0.670201
     37 H13        -4.5230    0.7970    0.3870 hn        1 MOL      0.333685
     38 H14        -6.5810    0.2090   -1.7150 h1        1 MOL      0.060896
     39 H15        -4.5240    0.8340   -2.9920 hc        1 MOL     -0.005437
     40 H16        -4.8550   -0.9670   -2.9910 hc        1 MOL     -0.005437
     41 N4         -6.6230   -2.2710   -0.9470 n         1 MOL     -0.491208
     42 C14        -6.8860   -3.5890   -0.2690 c3        1 MOL      0.097683
     43 C15        -6.6400   -4.8640   -1.0130 c         1 MOL      0.498892
     44 O9         -7.5430   -5.5390   -1.5220 o         1 MOL     -0.555437
     45 H17        -7.1580   -2.0350   -1.7730 hn        1 MOL      0.333940
     46 H18        -7.9090   -3.6420    0.0920 h1        1 MOL      0.061143
     47 H19        -6.3250   -3.7200    0.6570 h1        1 MOL      0.061143
     48 N5         -5.3850   -5.3420   -1.1890 n         1 MOL     -0.467647
     49 C16        -4.1420   -4.7870   -0.6930 c3        1 MOL      0.040904
     50 C17        -3.9420   -5.0700    0.8310 c         1 MOL      0.540071
     51 O10        -4.1700   -6.2170    1.2110 o         1 MOL     -0.534831
     52 C18        -3.0230   -5.3890   -1.5980 c3        1 MOL     -0.245921
     53 C19        -1.6640   -4.5870   -1.5940 c         1 MOL      0.436860
     54 N6         -0.6570   -4.8600   -2.3420 n         1 MOL     -0.620171
     55 O11        -1.4480   -3.7400   -0.6960 o         1 MOL     -0.538927
     56 H20        -5.3460   -6.3040   -1.4840 hn        1 MOL      0.302758
     57 H21        -4.1140   -3.7040   -0.8270 h1        1 MOL      0.097820
     58 H22        -3.2760   -5.4340   -2.6590 hc        1 MOL      0.109670
     59 H23        -2.7610   -6.3810   -1.2320 hc        1 MOL      0.109670
     60 H24        -0.7330   -5.4500   -3.1580 hn        1 MOL      0.333000
     61 H25         0.2230   -4.4190   -2.1200 hn        1 MOL      0.333000
     62 N7         -3.3530   -4.1100    1.5610 n         1 MOL     -0.352691
     63 C20        -2.8240   -4.3210    2.9060 c3        1 MOL     -0.161020
     64 C21        -1.3460   -4.8450    2.9000 c         1 MOL      0.564732
     65 O12        -1.0080   -5.6560    3.7520 o         1 MOL     -0.580227
     66 H26        -3.2360   -3.2520    1.0430 hn        1 MOL      0.273738
     67 H27        -3.4840   -4.9380    3.5230 h1        1 MOL      0.104840
     68 H28        -2.6450   -3.4030    3.4620 h1        1 MOL      0.104840
     69 N8         -0.5360   -4.5130    1.8920 n         1 MOL     -0.385998
     70 C22         0.8640   -4.8000    1.7890 c3        1 MOL      0.325536
     71 C23         1.6160   -3.5190    1.6700 c         1 MOL      0.152405
     72 O13         1.1000   -2.5480    1.1320 o         1 MOL     -0.430443
     73 C24         1.1470   -5.7090    0.5810 c3        1 MOL      0.387081
     74 C25         2.4730   -6.3490    0.5730 c3        1 MOL     -0.401594
     75 O14         0.1870   -6.7860    0.4890 oh        1 MOL     -0.597215
     76 H29        -0.9950   -4.0870    1.1070 hn        1 MOL      0.239008
     77 H30         1.1380   -5.2630    2.7400 h1        1 MOL     -0.004032
     78 H31         1.1410   -5.0590   -0.3020 h1        1 MOL      0.018919
     79 H32         0.1600   -7.0530   -0.4300 ho        1 MOL      0.359700
     80 H33         3.2860   -5.6490    0.4360 hc        1 MOL      0.085101
     81 H34         2.5880   -6.9480    1.4800 hc        1 MOL      0.085101
     82 H35         2.5400   -7.0770   -0.2470 hc        1 MOL      0.085101
     83 N9          2.8630   -3.5100    2.2210 n         1 MOL     -0.294956
     84 C26         3.6670   -2.3030    2.2480 c3        1 MOL      0.143269
     85 C27         4.4890   -2.2630    0.9660 c         1 MOL      0.411124
     86 O15         5.6210   -2.7310    0.9430 o         1 MOL     -0.611493
     87 C28         4.4230   -2.1640    3.5790 c3        1 MOL      0.303179
     88 C29         5.1750   -0.8140    3.4480 c3        1 MOL     -0.190034
     89 C30         3.5970   -2.2170    4.8680 c3        1 MOL     -0.347434
     90 C31         4.2910    0.4860    3.3760 c3        1 MOL     -0.331772
     91 H36         3.2120   -4.3550    2.6500 hn        1 MOL      0.229153
     92 H37         2.9830   -1.4500    2.2170 h1        1 MOL      0.100511
     93 H38         5.2210   -2.9140    3.5800 hc        1 MOL     -0.067874
     94 H39         5.8710   -0.8010    2.6160 hc        1 MOL      0.061163
     95 H40         5.7730   -0.7310    4.3560 hc        1 MOL      0.061163
     96 H41         2.7190   -1.5740    4.7420 hc        1 MOL      0.076045
     97 H42         3.2540   -3.2480    5.0000 hc        1 MOL      0.076045
     98 H43         4.2690   -1.9090    5.6650 hc        1 MOL      0.076045
     99 H44         3.6440    0.5800    4.2490 hc        1 MOL      0.096276
    100 H45         4.8470    1.4160    3.4910 hc        1 MOL      0.096276
    101 H46         3.7320    0.5640    2.4460 hc        1 MOL      0.096276
    102 N10         3.9190   -1.8480   -0.1290 n         1 MOL     -0.066730
    103 C32         4.4560   -1.9630   -1.4510 c3        1 MOL      0.075181
    104 C33         5.3840   -0.8010   -1.7620 c         1 MOL      0.550651
    105 O16         5.4280   -0.2850   -2.8880 o         1 MOL     -0.553062
    106 C34         3.3840   -2.3070   -2.5890 c3        1 MOL     -0.348297
    107 C35         2.3070   -3.3850   -2.2980 c         1 MOL      0.806524
    108 O17         1.2590   -3.0560   -1.7510 o         1 MOL     -0.711242
    109 O18         2.3940   -4.5910   -2.6500 o         1 MOL     -0.711242
    110 H47         2.9620   -1.5450   -0.0620 hn        1 MOL      0.031113
    111 H48         5.0490   -2.8860   -1.5120 h1        1 MOL      0.070289
    112 H49         3.9470   -2.6380   -3.4560 hc        1 MOL      0.095009
    113 H50         2.8640   -1.3740   -2.8300 hc        1 MOL      0.095009
    114 N11         6.2470   -0.3720   -0.7880 n         1 MOL     -0.674782
    115 C36         7.2490    0.6820   -1.0200 c3        1 MOL      0.690593
    116 C37         6.7600    2.0170   -0.4010 c         1 MOL      0.202986
    117 O19         6.2750    2.0270    0.7480 o         1 MOL     -0.501201
    118 C38         8.4550    0.1260   -0.3230 c3        1 MOL     -0.171448
    119 C39         9.6030    1.0730   -0.5900 ca        1 MOL      0.039297
    120 C40        10.0600    1.8520    0.4630 ca        1 MOL     -0.145404
    121 C41        10.1970    1.1290   -1.8860 ca        1 MOL     -0.145404
    122 C42        11.0940    2.7670    0.2160 ca        1 MOL     -0.108975
    123 C43        11.2910    1.9440   -2.0920 ca        1 MOL     -0.108975
    124 C44        11.6700    2.8370   -1.0820 ca        1 MOL     -0.134437
    125 H51         6.3120   -0.9370    0.0560 hn        1 MOL      0.306401
    126 H52         7.6130    0.7670   -2.0420 h1        1 MOL     -0.110347
    127 H53         8.6050   -0.9020   -0.6490 hc        1 MOL      0.052807
    128 H54         8.3090    0.0720    0.7610 hc        1 MOL      0.052807
    129 H55         9.6860    1.7390    1.4750 ha        1 MOL      0.121080
    130 H56         9.7620    0.6410   -2.7500 ha        1 MOL      0.121080
    131 H57        11.4260    3.4820    0.9480 ha        1 MOL      0.108739
    132 H58        11.7070    2.0040   -3.0820 ha        1 MOL      0.108739
    133 H59        12.4340    3.5910   -1.2280 ha        1 MOL      0.100902
    134 N12         6.8920    3.1300   -1.1830 n         1 MOL      0.025904
    135 C45         6.7670    4.4600   -0.6280 c3        1 MOL     -0.076229
    136 C46         5.4000    4.8550   -0.0310 c         1 MOL      0.503011
    137 O20         5.2190    6.0250    0.2560 o         1 MOL     -0.528016
    138 C47         7.3070    5.3810   -1.6620 c3        1 MOL     -0.078259
    139 C48         7.1830    4.6890   -3.0340 c3        1 MOL      0.010202
    140 C49         7.1820    3.2310   -2.6550 c3        1 MOL     -0.030900
    141 H60         7.5010    4.4540    0.1760 h1        1 MOL      0.056401
    142 H61         6.7470    6.3040   -1.7650 hc        1 MOL      0.041338
    143 H62         8.3670    5.5500   -1.4810 hc        1 MOL      0.041338
    144 H63         6.2180    4.8690   -3.5180 hc        1 MOL      0.025448
    145 H64         7.9640    5.0680   -3.6980 hc        1 MOL      0.025448
    146 H65         6.3990    2.7280   -3.2200 h1        1 MOL      0.033710
    147 H66         8.1770    2.8820   -2.9210 h1        1 MOL      0.033710
    148 N13         4.3650    3.9880    0.0260 n         1 MOL     -0.250136
    149 C50         3.0960    4.4910    0.5770 c3        1 MOL     -0.301179
    150 C51         3.2040    4.9520    1.9770 c         1 MOL      0.592792
    151 O21         2.3810    5.8010    2.2640 o         1 MOL     -0.532385
    152 C52         1.9270    3.5370    0.2480 c3        1 MOL      0.031141
    153 C53         1.9570    2.1440    0.8870 c3        1 MOL      0.045384
    154 C54         1.1440    0.9250    0.2940 c         1 MOL      0.551881
    155 O22         1.5890    0.1660   -0.6280 o         1 MOL     -0.681790
    156 O23         0.0220    0.6040    0.7950 o         1 MOL     -0.681790
    157 H67         4.6370    3.0350   -0.1760 hn        1 MOL      0.201605
    158 H68         2.8040    5.3820    0.0230 h1        1 MOL      0.175027
    159 H69         1.8430    3.4700   -0.8350 hc        1 MOL      0.039736
    160 H70         1.0190    4.0540    0.5530 hc        1 MOL      0.039736
    161 H71         1.6230    2.2030    1.9160 hc        1 MOL     -0.013220
    162 H72         2.9880    1.8080    0.7780 hc        1 MOL     -0.013220
    163 N14         4.1120    4.5220    2.8950 n         1 MOL     -0.252749
    164 C55         4.2910    5.1670    4.1540 c3        1 MOL     -0.210515
    165 H73         5.0090    4.6040    4.7510 h1        1 MOL      0.092560
    166 H74         4.6670    6.1780    3.9950 h1        1 MOL      0.092560
    167 H75         3.3380    5.2120    4.6790 h1        1 MOL      0.092560
    168 H76         4.6780    3.7280    2.6180 hn        1 MOL      0.209562
    169 Ca1        -0.4200   -1.4290   -0.9000 Ca        1 MOL      1.719878
    170 O24        -0.0260   -0.8310   -3.5080 oh        1 MOL     -0.917623
    171 H77         0.6560   -0.8030   -4.1830 ho        1 MOL      0.431855
    172 H78        -0.8310   -0.6010   -3.9670 ho        1 MOL      0.431855
    173 O25        -2.3580   -1.3810    0.9430 oh        1 MOL     -0.917623
    174 H79        -3.2670   -1.3440    0.6490 ho        1 MOL      0.431855
    175 H80        -2.3160   -0.7760    1.6710 ho        1 MOL      0.431855
@<TRIPOS>BOND
     1    1    2 1   
     2    1    4 1   
     3    1    5 1   
     4    1    6 1   
     5    2    3 2   
     6    2    7 1   
     7    7    8 1   
     8    7   15 1   
     9    8    9 1   
    10    8   11 1   
    11    8   16 1   
    12    9   10 2   
    13    9   19 1   
    14   11   12 1   
    15   11   17 1   
    16   11   18 1   
    17   12   13 1   
    18   12   14 1   
    19   19   20 1   
    20   19   24 1   
    21   20   21 1   
    22   20   23 1   
    23   20   25 1   
    24   21   22 2   
    25   21   29 1   
    26   23   26 1   
    27   23   27 1   
    28   23   28 1   
    29   29   30 1   
    30   29   37 1   
    31   30   31 1   
    32   30   33 1   
    33   30   38 1   
    34   31   32 2   
    35   31   41 1   
    36   33   34 1   
    37   33   39 1   
    38   33   40 1   
    39   34   35 1   
    40   34   36 1   
    41   41   42 1   
    42   41   45 1   
    43   42   43 1   
    44   42   46 1   
    45   42   47 1   
    46   43   44 2   
    47   43   48 1   
    48   48   49 1   
    49   48   56 1   
    50   49   50 1   
    51   49   52 1   
    52   49   57 1   
    53   50   51 2   
    54   50   62 1   
    55   52   53 1   
    56   52   58 1   
    57   52   59 1   
    58   53   54 1   
    59   53   55 2   
    60   54   60 1   
    61   54   61 1   
    62   62   63 1   
    63   62   66 1   
    64   63   64 1   
    65   63   67 1   
    66   63   68 1   
    67   64   65 2   
    68   64   69 1   
    69   69   70 1   
    70   69   76 1   
    71   70   71 1   
    72   70   73 1   
    73   70   77 1   
    74   71   72 2   
    75   71   83 1   
    76   73   74 1   
    77   73   75 1   
    78   73   78 1   
    79   74   80 1   
    80   74   81 1   
    81   74   82 1   
    82   75   79 1   
    83   83   84 1   
    84   83   91 1   
    85   84   85 1   
    86   84   87 1   
    87   84   92 1   
    88   85   86 2   
    89   85  102 1   
    90   87   88 1   
    91   87   89 1   
    92   87   93 1   
    93   88   90 1   
    94   88   94 1   
    95   88   95 1   
    96   89   96 1   
    97   89   97 1   
    98   89   98 1   
    99   90   99 1   
   100   90  100 1   
   101   90  101 1   
   102  102  103 1   
   103  102  110 1   
   104  103  104 1   
   105  103  106 1   
   106  103  111 1   
   107  104  105 2   
   108  104  114 1   
   109  106  107 1   
   110  106  112 1   
   111  106  113 1   
   112  107  108 1   
   113  107  109 1   
   114  114  115 1   
   115  114  125 1   
   116  115  116 1   
   117  115  118 1   
   118  115  126 1   
   119  116  117 2   
   120  116  134 1   
   121  118  119 1   
   122  118  127 1   
   123  118  128 1   
   124  119  120 ar  
   125  119  121 ar  
   126  120  122 ar  
   127  120  129 1   
   128  121  123 ar  
   129  121  130 1   
   130  122  124 ar  
   131  122  131 1   
   132  123  124 ar  
   133  123  132 1   
   134  124  133 1   
   135  134  135 1   
   136  134  140 1   
   137  135  136 1   
   138  135  138 1   
   139  135  141 1   
   140  136  137 2   
   141  136  148 1   
   142  138  139 1   
   143  138  142 1   
   144  138  143 1   
   145  139  140 1   
   146  139  144 1   
   147  139  145 1   
   148  140  146 1   
   149  140  147 1   
   150  148  149 1   
   151  148  157 1   
   152  149  150 1   
   153  149  152 1   
   154  149  158 1   
   155  150  151 2   
   156  150  163 1   
   157  152  153 1   
   158  152  159 1   
   159  152  160 1   
   160  153  154 1   
   161  153  161 1   
   162  153  162 1   
   163  154  155 1   
   164  154  156 1   
   165  163  164 1   
   166  163  168 1   
   167  164  165 1   
   168  164  166 1   
   169  164  167 1   
   170  170  171 1   
   171  170  172 1   
   172  173  174 1   
   173  173  175 1   
@<TRIPOS>SUBSTRUCTURE
     1 MOL         1 TEMP              0 ****  ****    0 ROOT
