@<TRIPOS>MOLECULE
MOL
  182   178     1     0     0
SMALL
resp


@<TRIPOS>ATOM
      1 C1          2.3360   -4.6760    5.8120 c3        1 MOL     -0.325655
      2 C2          2.1020   -4.2830    4.3420 c         1 MOL      0.781362
      3 O1          1.0190   -4.4690    3.6920 o         1 MOL     -0.700661
      4 H1          3.4060   -4.7770    5.9950 hc        1 MOL      0.092527
      5 H2          1.9280   -3.9040    6.4640 hc        1 MOL      0.092527
      6 H3          1.8420   -5.6250    6.0180 hc        1 MOL      0.092527
      7 N1          3.1010   -3.7310    3.7450 n         1 MOL     -0.538177
      8 C3          3.1710   -3.1670    2.3830 c3        1 MOL      0.232982
      9 C4          3.6310   -4.1590    1.3310 c         1 MOL      0.445227
     10 O2          4.4620   -5.0080    1.6890 o         1 MOL     -0.566971
     11 C5          4.1550   -1.9880    2.5680 c3        1 MOL     -0.194847
     12 C6          4.2400   -0.9920    1.4350 c         1 MOL      0.785943
     13 O3          4.1860    0.2290    1.6470 o         1 MOL     -0.711719
     14 O4          4.1590   -1.3480    0.2480 o         1 MOL     -0.711719
     15 H4          3.8670   -3.5080    4.3600 hn        1 MOL      0.289857
     16 H5          2.1700   -2.7890    2.2160 h1        1 MOL     -0.168735
     17 H6          5.1400   -2.3240    2.8860 hc        1 MOL      0.059384
     18 H7          3.7140   -1.3550    3.3320 hc        1 MOL      0.059384
     19 N2          3.1840   -4.1040    0.1330 n         1 MOL     -0.027558
     20 C7          3.5750   -5.0660   -0.9510 c3        1 MOL     -0.270474
     21 C8          4.6780   -4.6240   -1.8930 c         1 MOL      0.704867
     22 O5          5.1470   -5.4290   -2.6460 o         1 MOL     -0.574641
     23 C9          2.3280   -5.3630   -1.8300 c3        1 MOL      0.117808
     24 C10         1.2670   -6.0790   -0.8640 c3        1 MOL     -0.286613
     25 C11        -0.1740   -6.4080   -1.3070 c3        1 MOL     -0.010851
     26 C12        -0.0530   -7.3870   -2.4780 c3        1 MOL      0.047568
     27 N3         -1.3520   -8.0220   -2.8700 n4        1 MOL     -0.256901
     28 H8          2.4450   -3.4620   -0.1180 hn        1 MOL      0.136591
     29 H9          3.9060   -5.9680   -0.4230 h1        1 MOL      0.133048
     30 H10         2.5310   -6.0500   -2.6510 hc        1 MOL     -0.001132
     31 H11         1.9310   -4.4450   -2.2550 hc        1 MOL     -0.001132
     32 H12         1.0210   -5.5590    0.0640 hc        1 MOL      0.111219
     33 H13         1.6900   -7.0320   -0.5420 hc        1 MOL      0.111219
     34 H14        -0.8290   -5.5950   -1.6220 hc        1 MOL      0.028038
     35 H15        -0.7690   -6.9280   -0.5680 hc        1 MOL      0.028038
     36 H16         0.6980   -8.1090   -2.1340 hx        1 MOL      0.081622
     37 H17         0.3200   -6.8820   -3.3650 hx        1 MOL      0.081622
     38 H18        -1.8840   -8.5320   -2.1770 hn        1 MOL      0.254307
     39 H19        -1.8720   -7.2550   -3.2570 hn        1 MOL      0.254307
     40 H20        -1.1830   -8.6130   -3.6680 hn        1 MOL      0.254307
     41 N4          5.0910   -3.3650   -1.7400 n         1 MOL     -0.470852
     42 C13         5.9600   -2.5230   -2.5730 c3        1 MOL      0.186780
     43 C14         7.0700   -1.7160   -1.8500 c         1 MOL      0.335351
     44 O6          8.1400   -1.4010   -2.4040 o         1 MOL     -0.549883
     45 C15         5.1460   -1.6620   -3.5550 c3        1 MOL     -0.259875
     46 C16         4.3160   -0.5660   -2.8990 c         1 MOL      0.879507
     47 O7          4.8320    0.2150   -2.1350 o         1 MOL     -0.806361
     48 O8          3.0710   -0.3890   -3.2020 o         1 MOL     -0.806361
     49 H21         4.5330   -2.8220   -1.0830 hn        1 MOL      0.182219
     50 H22         6.5410   -3.2140   -3.1700 h1        1 MOL      0.074669
     51 H23         4.5040   -2.4430   -3.9640 hc        1 MOL      0.063089
     52 H24         5.7670   -1.1790   -4.3140 hc        1 MOL      0.063089
     53 N5          6.8950   -1.3300   -0.6260 n         1 MOL     -0.065192
     54 C17         7.8880   -0.6300    0.1990 c3        1 MOL     -0.278347
     55 C18         7.7410    0.8640    0.2530 c         1 MOL      0.629328
     56 O9          8.4800    1.5030    1.0050 o         1 MOL     -0.595932
     57 H25         5.9720   -1.5400   -0.2730 hn        1 MOL      0.067946
     58 H26         8.8830   -0.8760   -0.1590 h1        1 MOL      0.133675
     59 H27         7.7770   -0.9720    1.2250 h1        1 MOL      0.133675
     60 N6          6.8510    1.4130   -0.5000 n         1 MOL     -0.345973
     61 C19         6.7720    2.8540   -0.7510 c3        1 MOL     -0.036321
     62 C20         5.3200    3.3940   -0.3990 c         1 MOL      0.669700
     63 O10         4.3010    2.6420   -0.4570 o         1 MOL     -0.614930
     64 C21         7.0280    3.0010   -2.2810 c3        1 MOL     -0.214419
     65 C22         8.3940    2.6340   -2.8290 c         1 MOL      0.707330
     66 N7          8.5110    2.6110   -4.1390 n         1 MOL     -0.803053
     67 O11         9.3660    2.5360   -2.1220 o         1 MOL     -0.522123
     68 H28         6.4060    0.8370   -1.2080 hn        1 MOL      0.368000
     69 H29         7.4590    3.4440   -0.1460 h1        1 MOL      0.078574
     70 H30         6.9000    4.0470   -2.5630 hc        1 MOL      0.042512
     71 H31         6.2740    2.4470   -2.8370 hc        1 MOL      0.042512
     72 H32         7.7140    2.8730   -4.7010 hn        1 MOL      0.360455
     73 H33         9.4360    2.5020   -4.5460 hn        1 MOL      0.360455
     74 N8          5.2330    4.6900   -0.0160 n         1 MOL     -0.461903
     75 C23         3.9790    5.4640    0.1150 c3        1 MOL     -0.166339
     76 C24         2.9350    4.9760    1.1450 c         1 MOL      0.603267
     77 O12         3.1880    4.7270    2.3200 o         1 MOL     -0.503314
     78 H34         6.0780    5.2280    0.0590 hn        1 MOL      0.331616
     79 H35         3.6090    5.4880   -0.9080 h1        1 MOL      0.106520
     80 H36         4.3080    6.4810    0.3130 h1        1 MOL      0.106520
     81 N9          1.7060    4.9120    0.7320 n         1 MOL     -0.524389
     82 C25         0.5980    4.2600    1.4700 c3        1 MOL      0.060286
     83 C26         0.8930    2.7780    1.6630 c         1 MOL      0.490312
     84 O13         1.7810    2.1680    1.0740 o         1 MOL     -0.397971
     85 C27        -0.6880    4.4470    0.6780 c3        1 MOL     -0.157072
     86 C28        -0.9370    5.8750    0.1850 ca        1 MOL      0.047208
     87 C29        -0.9330    6.9350    1.0710 ca        1 MOL     -0.107198
     88 C30        -1.2230    6.1250   -1.2310 ca        1 MOL     -0.107198
     89 C31        -1.2210    8.2360    0.6770 ca        1 MOL     -0.273378
     90 C32        -1.3950    7.4920   -1.6170 ca        1 MOL     -0.273378
     91 C33        -1.5520    8.5160   -0.6830 ca        1 MOL      0.346699
     92 O14        -1.7670    9.8300   -1.1340 oh        1 MOL     -0.500605
     93 H37         1.4910    5.3450   -0.1600 hn        1 MOL      0.268727
     94 H38         0.5400    4.6830    2.4790 h1        1 MOL      0.091882
     95 H39        -1.4940    4.1310    1.3340 hc        1 MOL      0.051288
     96 H40        -0.5520    3.8710   -0.2500 hc        1 MOL      0.051288
     97 H41        -0.8180    6.5900    2.0820 ha        1 MOL      0.121266
     98 H42        -1.1030    5.3390   -1.9580 ha        1 MOL      0.121266
     99 H43        -1.3060    9.0230    1.4180 ha        1 MOL      0.159244
    100 H44        -1.4900    7.8140   -2.6490 ha        1 MOL      0.159244
    101 H45        -1.5740   10.5010   -0.4830 ho        1 MOL      0.381735
    102 N10         0.0650    2.1920    2.5820 n         1 MOL     -0.445680
    103 C34        -0.0170    0.7710    3.0280 c3        1 MOL     -0.042617
    104 C35        -0.2890   -0.1550    1.8550 c         1 MOL      0.061150
    105 O15         0.6260   -0.3730    1.0650 o         1 MOL     -0.312991
    106 C36         1.1150    0.4610    4.0250 c3        1 MOL      0.404904
    107 C37         1.0300   -0.9640    4.5440 c3        1 MOL      0.004146
    108 C38         1.1880    1.4870    5.2020 c3        1 MOL     -0.374283
    109 C39        -0.2840   -1.2070    5.3320 c3        1 MOL     -0.171588
    110 H46        -0.6210    2.7880    3.0200 hn        1 MOL      0.285202
    111 H47        -0.9280    0.7460    3.6280 h1        1 MOL      0.071328
    112 H48         2.0760    0.5290    3.5010 hc        1 MOL     -0.005371
    113 H49         1.9350   -1.1550    5.1140 hc        1 MOL      0.001204
    114 H50         1.0170   -1.6320    3.6810 hc        1 MOL      0.001204
    115 H51         0.3500    1.4220    5.8970 hc        1 MOL      0.084124
    116 H52         2.1110    1.1580    5.6860 hc        1 MOL      0.084124
    117 H53         1.3330    2.5080    4.8370 hc        1 MOL      0.084124
    118 H54        -0.3850   -2.2760    5.5200 hc        1 MOL      0.040217
    119 H55        -0.3720   -0.5820    6.2220 hc        1 MOL      0.040217
    120 H56        -1.1730   -0.9480    4.7480 hc        1 MOL      0.040217
    121 N11        -1.5630   -0.6730    1.7700 n         1 MOL     -0.213431
    122 C40        -2.0010   -1.7340    0.8270 c3        1 MOL      0.145014
    123 C41        -3.5190   -1.6470    0.6340 c         1 MOL      0.531800
    124 O16        -4.2430   -2.4320    1.2440 o         1 MOL     -0.512127
    125 C42        -1.5880   -3.0650    1.3450 c3        1 MOL     -0.101019
    126 O17        -0.1730   -3.1030    1.6740 oh        1 MOL     -0.476094
    127 H57        -2.2820   -0.2230    2.3290 hn        1 MOL      0.276624
    128 H58        -1.5800   -1.6250   -0.1730 h1        1 MOL     -0.007080
    129 H59        -1.7930   -3.8460    0.6210 h1        1 MOL      0.078374
    130 H60        -2.1740   -3.3220    2.2360 h1        1 MOL      0.078374
    131 H61        -0.1190   -3.8510    2.2660 ho        1 MOL      0.464432
    132 N12        -3.9550   -0.5380    0.0640 n         1 MOL     -0.680396
    133 C43        -5.3920   -0.3120   -0.1980 c3        1 MOL      0.609540
    134 C44        -5.7990    0.1840   -1.6490 c         1 MOL      0.341835
    135 O18        -4.8740    0.6080   -2.3970 o         1 MOL     -0.559716
    136 C45        -5.8680    0.6720    0.8380 c3        1 MOL     -0.271628
    137 H62        -3.3210    0.1290   -0.3540 hn        1 MOL      0.259416
    138 H63        -5.9340   -1.2650   -0.1460 h1        1 MOL     -0.043803
    139 H64        -5.8140    1.6630    0.3820 hc        1 MOL      0.069010
    140 H65        -6.8580    0.3440    1.1400 hc        1 MOL      0.069010
    141 H66        -5.2070    0.6650    1.7060 hc        1 MOL      0.069010
    142 N13        -7.0370    0.1480   -2.0540 n         1 MOL     -0.397082
    143 C46        -8.1760   -0.3510   -1.3650 c3        1 MOL      0.038448
    144 C47        -9.4630    0.4110   -1.9990 c         1 MOL      0.612025
    145 O19        -9.3050    1.1520   -2.9310 o         1 MOL     -0.567992
    146 C48        -8.3160   -1.9000   -1.5170 c3        1 MOL     -0.040731
    147 H67        -7.2430    0.6650   -2.8990 hn        1 MOL      0.322315
    148 H68        -8.1840   -0.0880   -0.3000 h1        1 MOL     -0.023237
    149 H69        -7.5840   -2.4770   -0.9550 hc        1 MOL      0.033634
    150 H70        -9.3060   -2.2930   -1.2560 hc        1 MOL      0.033634
    151 H71        -8.1080   -2.2490   -2.5260 hc        1 MOL      0.033634
    152 N14       -10.6880    0.4140   -1.4640 n         1 MOL     -0.407949
    153 C49       -10.9960   -0.0990   -0.0830 c3        1 MOL     -0.334357
    154 C50       -10.3270    0.6730    1.0340 c         1 MOL      0.635706
    155 O20        -9.8260    0.1090    2.0230 o         1 MOL     -0.539908
    156 C51       -12.4590   -0.1740    0.0590 c3        1 MOL      0.092290
    157 C52       -13.0190   -1.5390   -0.3680 c3        1 MOL     -0.109878
    158 C53       -12.8910   -2.0520   -1.7890 c         1 MOL      0.623462
    159 O21       -11.8780   -2.7230   -2.1570 o         1 MOL     -0.636105
    160 O22       -13.7100   -1.6990   -2.7010 o         1 MOL     -0.636105
    161 H72       -11.3920    0.9470   -1.9320 hn        1 MOL      0.345140
    162 H73       -10.5620   -1.0960   -0.0240 h1        1 MOL      0.173759
    163 H74       -12.8770    0.6230   -0.5490 hc        1 MOL      0.018467
    164 H75       -12.7500   -0.0600    1.1010 hc        1 MOL      0.018467
    165 H76       -14.0910   -1.3740   -0.2500 hc        1 MOL      0.012755
    166 H77       -12.5740   -2.3580    0.1870 hc        1 MOL      0.012755
    167 N15       -10.2820    2.0170    0.9490 n         1 MOL     -0.390623
    168 C54        -9.7370    2.9680    1.9700 c3        1 MOL     -0.107608
    169 H78        -9.6860    3.9690    1.5430 h1        1 MOL      0.083473
    170 H79       -10.3890    2.9780    2.8430 h1        1 MOL      0.083473
    171 H80        -8.7370    2.6500    2.2660 h1        1 MOL      0.083473
    172 H81       -10.5870    2.3640    0.0580 hn        1 MOL      0.249962
    173 Ca1         2.6720    0.6210   -0.8030 Ca        1 MOL      1.714454
    174 O23         1.1540   -1.7420   -0.9740 oh        1 MOL     -0.792716
    175 H82         0.7230   -1.9760   -0.1480 ho        1 MOL      0.401376
    176 H83         0.4460   -1.6630   -1.6070 ho        1 MOL      0.401376
    177 O24         1.6180    2.6580   -2.4890 oh        1 MOL     -0.792716
    178 H84         0.6780    2.6290   -2.6560 ho        1 MOL      0.401376
    179 H85         1.9420    3.3400   -3.0740 ho        1 MOL      0.401376
    180 O25         0.0100    0.6870   -1.5570 oh        1 MOL     -0.792716
    181 H86        -0.5980    0.8250   -0.8370 ho        1 MOL      0.401376
    182 H87        -0.4440    0.1060   -2.1590 ho        1 MOL      0.401376
@<TRIPOS>BOND
     1    1    2 1   
     2    1    4 1   
     3    1    5 1   
     4    1    6 1   
     5    2    3 2   
     6    2    7 1   
     7    7    8 1   
     8    7   15 1   
     9    8    9 1   
    10    8   11 1   
    11    8   16 1   
    12    9   10 2   
    13    9   19 1   
    14   11   12 1   
    15   11   17 1   
    16   11   18 1   
    17   12   13 1   
    18   12   14 1   
    19   19   20 1   
    20   19   28 1   
    21   20   21 1   
    22   20   23 1   
    23   20   29 1   
    24   21   22 2   
    25   21   41 1   
    26   23   24 1   
    27   23   30 1   
    28   23   31 1   
    29   24   25 1   
    30   24   32 1   
    31   24   33 1   
    32   25   26 1   
    33   25   34 1   
    34   25   35 1   
    35   26   27 1   
    36   26   36 1   
    37   26   37 1   
    38   27   38 1   
    39   27   39 1   
    40   27   40 1   
    41   41   42 1   
    42   41   49 1   
    43   42   43 1   
    44   42   45 1   
    45   42   50 1   
    46   43   44 2   
    47   43   53 1   
    48   45   46 1   
    49   45   51 1   
    50   45   52 1   
    51   46   47 1   
    52   46   48 1   
    53   53   54 1   
    54   53   57 1   
    55   54   55 1   
    56   54   58 1   
    57   54   59 1   
    58   55   56 2   
    59   55   60 1   
    60   60   61 1   
    61   60   68 1   
    62   61   62 1   
    63   61   64 1   
    64   61   69 1   
    65   62   63 2   
    66   62   74 1   
    67   64   65 1   
    68   64   70 1   
    69   64   71 1   
    70   65   66 1   
    71   65   67 2   
    72   66   72 1   
    73   66   73 1   
    74   74   75 1   
    75   74   78 1   
    76   75   76 1   
    77   75   79 1   
    78   75   80 1   
    79   76   77 2   
    80   76   81 1   
    81   81   82 1   
    82   81   93 1   
    83   82   83 1   
    84   82   85 1   
    85   82   94 1   
    86   83   84 2   
    87   83  102 1   
    88   85   86 1   
    89   85   95 1   
    90   85   96 1   
    91   86   87 ar  
    92   86   88 ar  
    93   87   89 ar  
    94   87   97 1   
    95   88   90 ar  
    96   88   98 1   
    97   89   91 ar  
    98   89   99 1   
    99   90   91 ar  
   100   90  100 1   
   101   91   92 1   
   102   92  101 1   
   103  102  103 1   
   104  102  110 1   
   105  103  104 1   
   106  103  106 1   
   107  103  111 1   
   108  104  105 2   
   109  104  121 1   
   110  106  107 1   
   111  106  108 1   
   112  106  112 1   
   113  107  109 1   
   114  107  113 1   
   115  107  114 1   
   116  108  115 1   
   117  108  116 1   
   118  108  117 1   
   119  109  118 1   
   120  109  119 1   
   121  109  120 1   
   122  121  122 1   
   123  121  127 1   
   124  122  123 1   
   125  122  125 1   
   126  122  128 1   
   127  123  124 2   
   128  123  132 1   
   129  125  126 1   
   130  125  129 1   
   131  125  130 1   
   132  126  131 1   
   133  132  133 1   
   134  132  137 1   
   135  133  134 1   
   136  133  136 1   
   137  133  138 1   
   138  134  135 2   
   139  134  142 1   
   140  136  139 1   
   141  136  140 1   
   142  136  141 1   
   143  142  143 1   
   144  142  147 1   
   145  143  144 1   
   146  143  146 1   
   147  143  148 1   
   148  144  145 2   
   149  144  152 1   
   150  146  149 1   
   151  146  150 1   
   152  146  151 1   
   153  152  153 1   
   154  152  161 1   
   155  153  154 1   
   156  153  156 1   
   157  153  162 1   
   158  154  155 2   
   159  154  167 1   
   160  156  157 1   
   161  156  163 1   
   162  156  164 1   
   163  157  158 1   
   164  157  165 1   
   165  157  166 1   
   166  158  159 1   
   167  158  160 1   
   168  167  168 1   
   169  167  172 1   
   170  168  169 1   
   171  168  170 1   
   172  168  171 1   
   173  174  175 1   
   174  174  176 1   
   175  177  178 1   
   176  177  179 1   
   177  180  181 1   
   178  180  182 1   
@<TRIPOS>SUBSTRUCTURE
     1 MOL         1 TEMP              0 ****  ****    0 ROOT
