@<TRIPOS>MOLECULE
MOL
  181   177     1     0     0
SMALL
resp


@<TRIPOS>ATOM
      1 C1         10.6490    7.0550   -0.1890 c3        1 MOL     -0.275499
      2 C2          9.4310    6.1450    0.0310 c         1 MOL      0.557672
      3 O1          8.6050    6.3670    0.9220 o         1 MOL     -0.539215
      4 H1         10.7120    7.3290   -1.2430 hc        1 MOL      0.075129
      5 H2         10.5450    7.9570    0.4140 hc        1 MOL      0.075129
      6 H3         11.5560    6.5260    0.1030 hc        1 MOL      0.075129
      7 N1          9.3270    4.9550   -0.5850 n         1 MOL     -0.408283
      8 C3         10.0870    4.3200   -1.6620 c3        1 MOL      0.005194
      9 C4         11.1040    3.3130   -1.1880 c         1 MOL      0.566651
     10 O2         12.0610    3.0320   -1.8720 o         1 MOL     -0.567266
     11 C5          9.1700    3.6460   -2.6720 c3        1 MOL     -0.289821
     12 C6          8.1430    2.6320   -2.0920 c         1 MOL      0.755678
     13 O3          7.8830    2.5230   -0.8630 o         1 MOL     -0.742828
     14 O4          7.3950    2.0840   -2.8780 o         1 MOL     -0.742828
     15 H4          8.6100    4.3600   -0.2060 hn        1 MOL      0.288193
     16 H5         10.6060    5.0910   -2.2280 h1        1 MOL      0.073085
     17 H6          9.7890    3.1130   -3.3970 hc        1 MOL      0.101917
     18 H7          8.5480    4.4210   -3.1200 hc        1 MOL      0.101917
     19 N2         10.9020    2.8550    0.0560 n         1 MOL     -0.448798
     20 C7         11.8470    2.0100    0.8180 c3        1 MOL      0.092196
     21 C8         11.0710    0.9950    1.6900 c         1 MOL      0.486230
     22 O5         11.7230    0.2270    2.3760 o         1 MOL     -0.560648
     23 C9         12.6560    2.9260    1.7180 c3        1 MOL     -0.232835
     24 H8         10.1240    3.2970    0.5180 hn        1 MOL      0.317941
     25 H9         12.4970    1.4120    0.1770 h1        1 MOL      0.091343
     26 H10        13.2270    3.6570    1.1370 hc        1 MOL      0.070588
     27 H11        11.9050    3.4790    2.2790 hc        1 MOL      0.070588
     28 H12        13.3140    2.4410    2.4410 hc        1 MOL      0.070588
     29 N3          9.7630    0.8450    1.5230 n         1 MOL     -0.111655
     30 C10         8.9880   -0.2600    2.0430 c3        1 MOL     -0.174435
     31 C11         8.3470   -1.1310    0.8880 c         1 MOL      0.572107
     32 O6          8.2460   -0.6440   -0.2250 o         1 MOL     -0.563057
     33 C12         7.9350    0.3070    3.0680 c3        1 MOL     -0.067840
     34 C13         6.9390    1.2460    2.4240 c         1 MOL      0.568862
     35 O7          6.1940    0.7010    1.5970 o         1 MOL     -0.628034
     36 O8          6.9490    2.4470    2.7740 o         1 MOL     -0.628034
     37 H13         9.2630    1.3230    0.7840 hn        1 MOL      0.073115
     38 H14         9.5420   -1.0110    2.6060 h1        1 MOL      0.082816
     39 H15         8.4250    0.7860    3.9170 hc        1 MOL      0.032697
     40 H16         7.3310   -0.5060    3.4640 hc        1 MOL      0.032697
     41 N4          7.9720   -2.3930    1.1330 n         1 MOL     -0.443058
     42 C14         7.5820   -3.3960    0.2000 c3        1 MOL     -0.024174
     43 C15         6.3480   -3.0850   -0.7060 c         1 MOL      0.801546
     44 O9          5.8410   -1.9870   -0.7120 o         1 MOL     -0.845173
     45 H17         8.1030   -2.6220    2.1130 hn        1 MOL      0.309183
     46 H18         7.3620   -4.2750    0.8020 h1        1 MOL      0.069402
     47 H19         8.4080   -3.7250   -0.4280 h1        1 MOL      0.069402
     48 N5          5.8230   -4.0540   -1.4080 n         1 MOL     -0.672549
     49 C16         4.6220   -3.8360   -2.2920 c3        1 MOL      0.524518
     50 C17         3.3660   -4.3790   -1.4770 c         1 MOL      0.565673
     51 O10         3.4320   -5.5500   -0.9720 o         1 MOL     -0.587958
     52 C18         4.8550   -4.6940   -3.4960 c3        1 MOL     -0.703352
     53 C19         3.7200   -4.6340   -4.5240 c         1 MOL      0.845318
     54 N6          3.8630   -5.1980   -5.7080 n         1 MOL     -0.851761
     55 O11         2.7050   -4.0710   -4.3520 o         1 MOL     -0.554863
     56 H20         6.2460   -4.9620   -1.3370 hn        1 MOL      0.301731
     57 H21         4.5650   -2.7920   -2.6040 h1        1 MOL     -0.043126
     58 H22         4.9750   -5.6900   -3.0520 hc        1 MOL      0.165667
     59 H23         5.7920   -4.3060   -3.9000 hc        1 MOL      0.165667
     60 H24         4.5450   -5.9330   -5.8580 hn        1 MOL      0.368048
     61 H25         3.1110   -5.1670   -6.3740 hn        1 MOL      0.368048
     62 N7          2.3360   -3.5950   -1.3250 n         1 MOL     -0.457830
     63 C20         1.1130   -3.8220   -0.5700 c3        1 MOL     -0.016857
     64 C21         1.2110   -3.4600    0.9700 c         1 MOL      0.655643
     65 O12         2.1850   -2.8310    1.4980 o         1 MOL     -0.615707
     66 H26         2.3610   -2.6870   -1.7450 hn        1 MOL      0.340681
     67 H27         0.8780   -4.8760   -0.7170 h1        1 MOL      0.109898
     68 H28         0.3000   -3.2700   -1.0480 h1        1 MOL      0.109898
     69 N8          0.2710   -3.9020    1.8330 n         1 MOL     -0.392358
     70 C22        -0.8750   -4.7100    1.6240 c3        1 MOL     -0.176646
     71 C23        -2.2050   -4.0410    1.7650 c         1 MOL      0.616495
     72 O13        -3.1570   -4.6360    1.3160 o         1 MOL     -0.585220
     73 C24        -0.9960   -5.9870    2.4840 c3        1 MOL      0.271642
     74 C25         0.0100   -7.0970    2.3430 c3        1 MOL     -0.404552
     75 O14        -0.8850   -5.4340    3.7730 oh        1 MOL     -0.598516
     76 H29         0.5060   -3.8650    2.8170 hn        1 MOL      0.310017
     77 H30        -0.7700   -5.1270    0.6230 h1        1 MOL      0.093338
     78 H31        -2.0270   -6.3510    2.5270 h1        1 MOL      0.063290
     79 H32        -1.0150   -6.1680    4.3780 ho        1 MOL      0.394204
     80 H33         0.9740   -6.5940    2.3290 hc        1 MOL      0.106746
     81 H34        -0.0670   -7.8530    3.1300 hc        1 MOL      0.106746
     82 H35        -0.1240   -7.6310    1.4110 hc        1 MOL      0.106746
     83 N9         -2.2250   -2.8190    2.3340 n         1 MOL     -0.361380
     84 C26        -3.3660   -1.9320    2.4620 c3        1 MOL     -0.021492
     85 C27        -3.1710   -0.6470    1.6550 c         1 MOL      0.401847
     86 O15        -2.2160    0.0860    1.7790 o         1 MOL     -0.538125
     87 C28        -3.4970   -1.5070    3.9240 c3        1 MOL      0.012389
     88 C29        -3.9670   -2.7890    4.6820 c3        1 MOL      0.049139
     89 C30        -4.5640   -0.3920    4.2760 c3        1 MOL     -0.128715
     90 C31        -3.8340   -2.8330    6.2320 c3        1 MOL     -0.237127
     91 H36        -1.3320   -2.3990    2.5410 hn        1 MOL      0.240594
     92 H37        -4.2350   -2.4660    2.0670 h1        1 MOL      0.064299
     93 H38        -2.5370   -1.1690    4.3400 hc        1 MOL      0.039575
     94 H39        -3.4660   -3.6760    4.2970 hc        1 MOL      0.004906
     95 H40        -5.0190   -2.9090    4.4120 hc        1 MOL      0.004906
     96 H41        -5.4570   -0.5340    3.6770 hc        1 MOL      0.057760
     97 H42        -4.8380   -0.1860    5.3170 hc        1 MOL      0.057760
     98 H43        -4.1680    0.5950    4.0760 hc        1 MOL      0.057760
     99 H44        -4.1680   -3.8070    6.5750 hc        1 MOL      0.045812
    100 H45        -2.7790   -2.7720    6.4940 hc        1 MOL      0.045812
    101 H46        -4.4900   -2.0870    6.6800 hc        1 MOL      0.045812
    102 N10        -4.0670   -0.3720    0.6810 n         1 MOL     -0.259635
    103 C32        -5.1900   -1.1510    0.2600 c3        1 MOL      0.111038
    104 C33        -6.3000   -0.2390   -0.1460 c         1 MOL      0.407785
    105 O16        -5.9530    0.8370   -0.6020 o         1 MOL     -0.472890
    106 C34        -4.7770   -2.1840   -0.8560 c3        1 MOL     -0.092604
    107 C35        -4.0210   -1.5670   -2.0370 c         1 MOL      0.694995
    108 O17        -4.5320   -1.7970   -3.1480 o         1 MOL     -0.723601
    109 O18        -2.9030   -1.0350   -1.9030 o         1 MOL     -0.723601
    110 H47        -3.8750    0.5230    0.2470 hn        1 MOL      0.272052
    111 H48        -5.6110   -1.7670    1.0580 h1        1 MOL      0.045956
    112 H49        -5.6890   -2.6970   -1.1500 hc        1 MOL     -0.008192
    113 H50        -4.0720   -2.8980   -0.4370 hc        1 MOL     -0.008192
    114 N11        -7.5330   -0.7490   -0.1370 n         1 MOL     -0.593679
    115 C36        -8.5570   -0.1190   -1.0420 c3        1 MOL      0.587439
    116 C37        -9.8110    0.2440   -0.2160 c         1 MOL      0.083901
    117 O19       -10.0560   -0.3630    0.8630 o         1 MOL     -0.436472
    118 C38        -8.9040   -1.1380   -2.1910 c3        1 MOL     -0.092993
    119 C39       -10.1090   -0.7000   -3.0500 ca        1 MOL      0.022114
    120 C40       -11.4150   -1.0780   -2.7730 ca        1 MOL     -0.121115
    121 C41        -9.8250    0.1160   -4.1950 ca        1 MOL     -0.121115
    122 C42       -12.4900   -0.6180   -3.6580 ca        1 MOL     -0.173976
    123 C43       -10.8450    0.4810   -5.0510 ca        1 MOL     -0.173976
    124 C44       -12.1790    0.1910   -4.7840 ca        1 MOL     -0.067090
    125 H51        -7.7000   -1.6550    0.2740 hn        1 MOL      0.321705
    126 H52        -8.1340    0.7450   -1.5430 h1        1 MOL      0.011014
    127 H53        -9.2130   -2.0820   -1.7480 hc        1 MOL      0.020963
    128 H54        -8.0380   -1.2640   -2.8530 hc        1 MOL      0.020963
    129 H55       -11.6210   -1.6040   -1.8520 ha        1 MOL      0.124578
    130 H56        -8.8210    0.5040   -4.2980 ha        1 MOL      0.124578
    131 H57       -13.4930   -0.9300   -3.4410 ha        1 MOL      0.110799
    132 H58       -10.5040    1.0370   -5.9130 ha        1 MOL      0.110799
    133 H59       -12.9850    0.5490   -5.4010 ha        1 MOL      0.085647
    134 N12       -10.5980    1.3060   -0.6140 n         1 MOL      0.026619
    135 C45       -10.2380    2.4740   -1.4440 c3        1 MOL      0.076433
    136 C46        -8.9810    3.1890   -0.9510 c         1 MOL      0.210645
    137 O20        -8.1280    3.5210   -1.7530 o         1 MOL     -0.506028
    138 C47       -11.4560    3.3410   -1.2650 c3        1 MOL      0.167989
    139 C48       -12.6670    2.4620   -0.8870 c3        1 MOL     -0.270309
    140 C49       -11.8850    1.4830    0.0190 c3        1 MOL     -0.010356
    141 H60       -10.1510    2.2510   -2.5070 h1        1 MOL      0.049180
    142 H61       -11.3110    4.1020   -0.5020 hc        1 MOL     -0.019873
    143 H62       -11.7680    3.8400   -2.1790 hc        1 MOL     -0.019873
    144 H63       -13.3760    3.1140   -0.3780 hc        1 MOL      0.066485
    145 H64       -13.1080    2.1050   -1.8080 hc        1 MOL      0.066485
    146 H65       -11.8200    1.7840    1.0610 h1        1 MOL      0.058600
    147 H66       -12.4990    0.5880    0.1230 h1        1 MOL      0.058600
    148 N13        -8.7260    3.3810    0.3260 n         1 MOL     -0.344342
    149 C50        -7.4870    3.9360    0.8700 c3        1 MOL      0.374176
    150 C51        -7.5260    5.4960    0.8740 c         1 MOL      0.374608
    151 O21        -8.1160    6.1390    1.7710 o         1 MOL     -0.573865
    152 C52        -7.4510    3.6030    2.3880 c3        1 MOL     -0.140755
    153 C53        -7.2320    2.1190    2.5900 c3        1 MOL      0.146937
    154 C54        -7.5520    1.8000    4.0670 c         1 MOL      0.691659
    155 O22        -6.7810    2.1400    4.9910 o         1 MOL     -0.739363
    156 O23        -8.5880    1.1590    4.1990 o         1 MOL     -0.739363
    157 H67        -9.4280    3.0640    0.9850 hn        1 MOL      0.260525
    158 H68        -6.5740    3.5820    0.3830 h1        1 MOL      0.037277
    159 H69        -8.4070    3.8930    2.8440 hc        1 MOL      0.019294
    160 H70        -6.6000    4.1470    2.7880 hc        1 MOL      0.019294
    161 H71        -6.2000    1.8590    2.3440 hc        1 MOL     -0.106317
    162 H72        -7.8400    1.4530    1.9820 hc        1 MOL     -0.106317
    163 N14        -7.0970    6.2240   -0.1640 n         1 MOL     -0.286993
    164 C55        -6.0680    5.8960   -1.1390 c3        1 MOL     -0.129649
    165 H73        -6.1620    6.5560   -2.0020 h1        1 MOL      0.066772
    166 H74        -5.0840    6.0270   -0.6880 h1        1 MOL      0.066772
    167 H75        -6.1860    4.8610   -1.4600 h1        1 MOL      0.066772
    168 H76        -7.3040    7.2130   -0.2160 hn        1 MOL      0.241241
    169 Ca1         6.1540    0.6170   -0.9230 Ca        1 MOL      1.741152
    170 O24         4.3720    0.0180   -2.9350 oh        1 MOL     -0.799266
    171 H77         4.9770   -0.5140   -3.4550 ho        1 MOL      0.406499
    172 H78         3.5440   -0.0260   -3.4230 ho        1 MOL      0.406499
    173 O25         7.0920   -0.7550   -3.0970 oh        1 MOL     -0.799266
    174 H79         7.6470   -0.2560   -3.6980 ho        1 MOL      0.406499
    175 H80         7.2960   -1.6720   -3.2870 ho        1 MOL      0.406499
    176 O26         4.4410    2.6070   -0.4970 oh        1 MOL     -0.799266
    177 H81         3.8900    3.0220   -1.1560 ho        1 MOL      0.406499
    178 H82         4.5980    3.2960    0.1570 ho        1 MOL      0.406499
    179 O27         3.9360   -0.4700    0.6580 oh        1 MOL     -0.799266
    180 H83         3.8960   -1.3680    0.9900 ho        1 MOL      0.406499
    181 H84         4.5040   -0.0020    1.2700 ho        1 MOL      0.406499
@<TRIPOS>BOND
     1    1    2 1   
     2    1    4 1   
     3    1    5 1   
     4    1    6 1   
     5    2    3 2   
     6    2    7 1   
     7    7    8 1   
     8    7   15 1   
     9    8    9 1   
    10    8   11 1   
    11    8   16 1   
    12    9   10 2   
    13    9   19 1   
    14   11   12 1   
    15   11   17 1   
    16   11   18 1   
    17   12   13 1   
    18   12   14 1   
    19   19   20 1   
    20   19   24 1   
    21   20   21 1   
    22   20   23 1   
    23   20   25 1   
    24   21   22 2   
    25   21   29 1   
    26   23   26 1   
    27   23   27 1   
    28   23   28 1   
    29   29   30 1   
    30   29   37 1   
    31   30   31 1   
    32   30   33 1   
    33   30   38 1   
    34   31   32 2   
    35   31   41 1   
    36   33   34 1   
    37   33   39 1   
    38   33   40 1   
    39   34   35 1   
    40   34   36 1   
    41   41   42 1   
    42   41   45 1   
    43   42   43 1   
    44   42   46 1   
    45   42   47 1   
    46   43   44 2   
    47   43   48 1   
    48   48   49 1   
    49   48   56 1   
    50   49   50 1   
    51   49   52 1   
    52   49   57 1   
    53   50   51 2   
    54   50   62 1   
    55   52   53 1   
    56   52   58 1   
    57   52   59 1   
    58   53   54 1   
    59   53   55 2   
    60   54   60 1   
    61   54   61 1   
    62   62   63 1   
    63   62   66 1   
    64   63   64 1   
    65   63   67 1   
    66   63   68 1   
    67   64   65 2   
    68   64   69 1   
    69   69   70 1   
    70   69   76 1   
    71   70   71 1   
    72   70   73 1   
    73   70   77 1   
    74   71   72 2   
    75   71   83 1   
    76   73   74 1   
    77   73   75 1   
    78   73   78 1   
    79   74   80 1   
    80   74   81 1   
    81   74   82 1   
    82   75   79 1   
    83   83   84 1   
    84   83   91 1   
    85   84   85 1   
    86   84   87 1   
    87   84   92 1   
    88   85   86 2   
    89   85  102 1   
    90   87   88 1   
    91   87   89 1   
    92   87   93 1   
    93   88   90 1   
    94   88   94 1   
    95   88   95 1   
    96   89   96 1   
    97   89   97 1   
    98   89   98 1   
    99   90   99 1   
   100   90  100 1   
   101   90  101 1   
   102  102  103 1   
   103  102  110 1   
   104  103  104 1   
   105  103  106 1   
   106  103  111 1   
   107  104  105 2   
   108  104  114 1   
   109  106  107 1   
   110  106  112 1   
   111  106  113 1   
   112  107  108 1   
   113  107  109 1   
   114  114  115 1   
   115  114  125 1   
   116  115  116 1   
   117  115  118 1   
   118  115  126 1   
   119  116  117 2   
   120  116  134 1   
   121  118  119 1   
   122  118  127 1   
   123  118  128 1   
   124  119  120 ar  
   125  119  121 ar  
   126  120  122 ar  
   127  120  129 1   
   128  121  123 ar  
   129  121  130 1   
   130  122  124 ar  
   131  122  131 1   
   132  123  124 ar  
   133  123  132 1   
   134  124  133 1   
   135  134  135 1   
   136  134  140 1   
   137  135  136 1   
   138  135  138 1   
   139  135  141 1   
   140  136  137 2   
   141  136  148 1   
   142  138  139 1   
   143  138  142 1   
   144  138  143 1   
   145  139  140 1   
   146  139  144 1   
   147  139  145 1   
   148  140  146 1   
   149  140  147 1   
   150  148  149 1   
   151  148  157 1   
   152  149  150 1   
   153  149  152 1   
   154  149  158 1   
   155  150  151 2   
   156  150  163 1   
   157  152  153 1   
   158  152  159 1   
   159  152  160 1   
   160  153  154 1   
   161  153  161 1   
   162  153  162 1   
   163  154  155 1   
   164  154  156 1   
   165  163  164 1   
   166  163  168 1   
   167  164  165 1   
   168  164  166 1   
   169  164  167 1   
   170  170  171 1   
   171  170  172 1   
   172  173  174 1   
   173  173  175 1   
   174  176  177 1   
   175  176  178 1   
   176  179  180 1   
   177  179  181 1   
@<TRIPOS>SUBSTRUCTURE
     1 MOL         1 TEMP              0 ****  ****    0 ROOT
