@<TRIPOS>MOLECULE
MOL
  192   187     1     0     0
SMALL
resp


@<TRIPOS>ATOM
      1 C1          9.5810    1.0280    1.5650 c3        1 MOL     -0.674717
      2 C2          8.4570    0.4440    0.7310 c         1 MOL      0.840763
      3 O1          7.2720    0.4270    1.1630 o         1 MOL     -0.765696
      4 H1          9.1680    1.7280    2.2910 hc        1 MOL      0.177876
      5 H2         10.1000    0.2240    2.0890 hc        1 MOL      0.177876
      6 H3         10.2820    1.5510    0.9140 hc        1 MOL      0.177876
      7 N1          8.7220    0.0010   -0.4960 n         1 MOL     -0.569353
      8 C3          7.6830   -0.4550   -1.5200 c3        1 MOL      0.169135
      9 C4          7.1130   -1.8010   -1.0790 c         1 MOL      0.442335
     10 O2          6.9040   -2.6870   -1.9750 o         1 MOL     -0.487903
     11 C5          8.2860   -0.4860   -2.9860 c3        1 MOL     -0.101038
     12 C6          9.6930   -0.9070   -3.0730 c         1 MOL      0.700070
     13 O3          9.9990   -2.0950   -3.3180 o         1 MOL     -0.660569
     14 O4         10.5350    0.0380   -2.8650 o         1 MOL     -0.660569
     15 H4          9.6820    0.0470   -0.7900 hn        1 MOL      0.250028
     16 H5          6.7610    0.1370   -1.5260 h1        1 MOL      0.048960
     17 H6          8.1950    0.5620   -3.2820 hc        1 MOL      0.031858
     18 H7          7.6990   -1.0910   -3.6710 hc        1 MOL      0.031858
     19 N2          6.8280   -2.0560    0.1770 n         1 MOL     -0.399261
     20 C7          6.3240   -3.3380    0.6810 c3        1 MOL      0.151682
     21 C8          4.8380   -3.6840    0.3140 c         1 MOL      0.425993
     22 O5          4.5250   -4.8590    0.0550 o         1 MOL     -0.540267
     23 C9          6.5720   -3.3870    2.1980 c3        1 MOL     -0.173087
     24 C10         8.1170   -3.3730    2.4690 c3        1 MOL     -0.037890
     25 C11         8.4380   -3.4270    3.9920 c3        1 MOL     -0.019993
     26 C12         9.9300   -3.1500    4.3030 c3        1 MOL      0.105812
     27 N3         10.0710   -3.1740    5.7370 n4        1 MOL     -0.184842
     28 H8          6.8550   -1.2540    0.7950 hn        1 MOL      0.374912
     29 H9          6.9140   -4.1570    0.2810 h1        1 MOL      0.069112
     30 H10         6.1500   -4.3530    2.4710 hc        1 MOL      0.048270
     31 H11         6.1080   -2.4990    2.6190 hc        1 MOL      0.048270
     32 H12         8.5310   -2.4930    1.9710 hc        1 MOL      0.046693
     33 H13         8.5290   -4.2570    1.9790 hc        1 MOL      0.046693
     34 H14         8.1600   -4.4010    4.4020 hc        1 MOL      0.024180
     35 H15         7.9730   -2.6280    4.5670 hc        1 MOL      0.024180
     36 H16        10.2070   -2.1710    3.9150 hx        1 MOL      0.039135
     37 H17        10.4930   -3.9290    3.7900 hx        1 MOL      0.039135
     38 H18        11.0370   -3.4010    5.9460 hn        1 MOL      0.244627
     39 H19         9.6730   -2.4420    6.3050 hn        1 MOL      0.244627
     40 H20         9.5940   -4.0000    6.0750 hn        1 MOL      0.244627
     41 N4          3.8390   -2.8050    0.2610 n         1 MOL     -0.321365
     42 C13         3.7910   -1.3790    0.7440 c3        1 MOL      0.095438
     43 C14         3.7940   -0.3330   -0.3560 c         1 MOL      0.092262
     44 O6          3.6110   -0.7080   -1.5190 o         1 MOL     -0.386507
     45 C15         2.5110   -1.1890    1.5950 c3        1 MOL     -0.336503
     46 C16         1.2220   -1.7910    1.0810 c         1 MOL      0.912013
     47 O7          0.7020   -1.2360    0.1490 o         1 MOL     -0.733696
     48 O8          0.7900   -2.8560    1.5890 o         1 MOL     -0.733696
     49 H21         2.9070   -3.1100    0.0150 hn        1 MOL      0.324188
     50 H22         4.6470   -1.2540    1.4150 h1        1 MOL      0.083052
     51 H23         2.3190   -0.1310    1.7460 hc        1 MOL      0.041562
     52 H24         2.7860   -1.5810    2.5740 hc        1 MOL      0.041562
     53 N5          4.0470    0.8720    0.0350 n         1 MOL     -0.001102
     54 C17         3.9820    2.0150   -0.8260 c3        1 MOL     -0.330893
     55 C18         2.6090    2.6620   -1.0890 c         1 MOL      0.865466
     56 O9          1.5680    2.0510   -0.8050 o         1 MOL     -0.657344
     57 H25         4.0350    1.0370    1.0360 hn        1 MOL      0.217399
     58 H26         4.4220    1.7320   -1.7870 h1        1 MOL      0.112453
     59 H27         4.6220    2.7080   -0.2870 h1        1 MOL      0.112453
     60 N6          2.6230    3.8890   -1.6370 n         1 MOL     -0.652466
     61 C19         1.4940    4.6870   -2.1130 c3        1 MOL      0.491270
     62 C20         1.6740    6.2190   -2.0760 c         1 MOL      0.436812
     63 O10         2.7070    6.7340   -1.6330 o         1 MOL     -0.525625
     64 C21         1.2760    4.2590   -3.5830 c3        1 MOL     -0.359701
     65 C22         0.9320    2.7760   -3.7760 c         1 MOL      0.709793
     66 O11         0.0050    2.3960   -3.0560 o         1 MOL     -0.656136
     67 O12         1.4900    2.0340   -4.5890 o         1 MOL     -0.656136
     68 H28         3.5580    4.2450   -1.7900 hn        1 MOL      0.300014
     69 H29         0.5750    4.4570   -1.5740 h1        1 MOL     -0.006385
     70 H30         2.2050    4.4490   -4.1210 hc        1 MOL      0.065074
     71 H31         0.5480    4.8480   -4.1520 hc        1 MOL      0.065074
     72 N7          0.6500    7.0450   -2.4270 n         1 MOL     -0.531349
     73 C23        -0.8200    6.7520   -2.5980 c3        1 MOL      0.021996
     74 C24        -1.4760    6.3230   -1.2940 c         1 MOL      0.649523
     75 O13        -1.1600    6.8790   -0.2710 o         1 MOL     -0.507252
     76 H32         0.9390    7.9960   -2.5440 hn        1 MOL      0.350354
     77 H33        -0.9600    6.0000   -3.3650 h1        1 MOL      0.049150
     78 H34        -1.3690    7.6490   -2.9000 h1        1 MOL      0.049150
     79 N8         -2.4610    5.4100   -1.3350 n         1 MOL     -0.624168
     80 C25        -3.0300    4.6240   -0.2170 c3        1 MOL      0.037810
     81 C26        -1.9950    3.7370    0.4070 c         1 MOL      0.596057
     82 O14        -1.2820    3.0290   -0.3010 o         1 MOL     -0.642023
     83 C27        -4.4090    3.9570   -0.5470 c3        1 MOL      0.290201
     84 C28        -5.4830    4.9860   -0.7370 c3        1 MOL     -0.310456
     85 O15        -4.8370    3.1420    0.5700 oh        1 MOL     -0.584532
     86 H35        -2.8220    5.1210   -2.2360 hn        1 MOL      0.323716
     87 H36        -3.3520    5.3290    0.5470 h1        1 MOL      0.041392
     88 H37        -4.3310    3.2890   -1.4060 h1        1 MOL      0.092574
     89 H38        -5.1050    3.8020    1.2200 ho        1 MOL      0.376174
     90 H39        -5.6250    5.6640    0.1060 hc        1 MOL      0.092900
     91 H40        -5.2830    5.4950   -1.6770 hc        1 MOL      0.092900
     92 H41        -6.4260    4.4610   -0.8580 hc        1 MOL      0.092900
     93 N9         -1.8410    3.8340    1.7450 n         1 MOL     -0.410932
     94 C29        -0.9380    3.0590    2.6130 c3        1 MOL     -0.027919
     95 C30        -1.2260    1.5560    2.3830 c         1 MOL      0.518221
     96 O16        -0.6700    1.0020    1.4380 o         1 MOL     -0.630728
     97 C31         0.5570    3.3110    2.3960 c3        1 MOL      0.121386
     98 C32         0.8590    4.7870    2.7120 c3        1 MOL     -0.073936
     99 C33         1.5050    2.3460    3.1790 c3        1 MOL     -0.542350
    100 C34         1.8710    5.3910    1.6580 c3        1 MOL     -0.076736
    101 H42        -2.4880    4.4560    2.2060 hn        1 MOL      0.258925
    102 H43        -1.2210    3.1040    3.6700 h1        1 MOL      0.045865
    103 H44         0.7540    2.9720    1.3800 hc        1 MOL      0.126850
    104 H45         1.3050    4.9760    3.6790 hc        1 MOL      0.038159
    105 H46        -0.0210    5.4240    2.6420 hc        1 MOL      0.038159
    106 H47         1.4230    2.6310    4.2300 hc        1 MOL      0.141864
    107 H48         1.2310    1.3020    3.0300 hc        1 MOL      0.141864
    108 H49         2.4890    2.3440    2.7090 hc        1 MOL      0.141864
    109 H50         2.1510    6.3500    2.0860 hc        1 MOL      0.016923
    110 H51         2.6950    4.7540    1.3510 hc        1 MOL      0.016923
    111 H52         1.3650    5.6720    0.7360 hc        1 MOL      0.016923
    112 N10        -2.1240    0.9640    3.1880 n         1 MOL     -0.267069
    113 C35        -2.5190   -0.4450    3.1680 c3        1 MOL     -0.227049
    114 C36        -4.0520   -0.5690    3.2000 c         1 MOL      0.600846
    115 O17        -4.5140   -1.6690    3.4660 o         1 MOL     -0.562576
    116 C37        -1.8160   -1.2980    4.2110 c3        1 MOL      0.491273
    117 C38        -2.1800   -0.8830    5.5480 c3        1 MOL     -0.171080
    118 O18        -0.4260   -1.3040    4.1350 oh        1 MOL     -0.609595
    119 H53        -2.6940    1.5530    3.7830 hn        1 MOL      0.233298
    120 H54        -2.2460   -0.9330    2.2380 h1        1 MOL      0.109001
    121 H55        -2.1230   -2.3370    4.1460 h1        1 MOL      0.003839
    122 H56        -0.1050   -1.6090    3.2860 ho        1 MOL      0.353385
    123 H57        -3.2510   -0.8820    5.7030 hc        1 MOL      0.024729
    124 H58        -1.7070   -1.5310    6.2880 hc        1 MOL      0.024729
    125 H59        -1.8400    0.1460    5.6920 hc        1 MOL      0.024729
    126 N11        -4.8250    0.4570    2.7920 n         1 MOL     -0.285884
    127 C39        -6.2660    0.2580    2.6100 c3        1 MOL     -0.021437
    128 C40        -6.5470   -0.5140    1.2810 c         1 MOL      0.534488
    129 O19        -6.8520    0.0920    0.2590 o         1 MOL     -0.512761
    130 C41        -7.0340    1.5360    2.7600 c3        1 MOL      0.373151
    131 C42        -8.5170    1.2780    2.9660 c3        1 MOL     -0.356367
    132 O20        -6.6210    2.3700    3.9130 oh        1 MOL     -0.679806
    133 H60        -4.3380    1.2830    2.4650 hn        1 MOL      0.193574
    134 H61        -6.6470   -0.4300    3.3640 h1        1 MOL      0.059612
    135 H62        -6.8660    2.1780    1.8910 h1        1 MOL     -0.008125
    136 H63        -7.4160    2.7530    4.2960 ho        1 MOL      0.421156
    137 H64        -9.2560    2.0210    2.6780 hc        1 MOL      0.088769
    138 H65        -8.8140    0.3460    2.4940 hc        1 MOL      0.088769
    139 H66        -8.6290    1.2530    4.0510 hc        1 MOL      0.088769
    140 N12        -6.3210   -1.8550    1.2500 n         1 MOL     -0.539576
    141 C43        -6.2690   -2.6940    0.0570 c3        1 MOL      0.220914
    142 C44        -5.0800   -2.4130   -0.8290 c         1 MOL      0.344428
    143 O21        -4.7560   -1.2160   -1.0170 o         1 MOL     -0.411595
    144 C45        -7.5510   -2.7920   -0.7140 c3        1 MOL     -0.054894
    145 C46        -8.7930   -3.1050    0.0750 c3        1 MOL     -0.423020
    146 C47        -9.9230   -3.4010   -0.8690 c3        1 MOL      0.445434
    147 C48       -11.2910   -3.3920   -0.2390 c3        1 MOL     -0.143790
    148 N13       -12.1960   -4.0710   -1.1140 n4        1 MOL     -0.070427
    149 H67        -6.0770   -2.3220    2.1110 hn        1 MOL      0.299303
    150 H68        -6.2610   -3.7750    0.2270 h1        1 MOL      0.006588
    151 H69        -7.4370   -3.5300   -1.5080 hc        1 MOL      0.052229
    152 H70        -7.6920   -1.8660   -1.2610 hc        1 MOL      0.052229
    153 H71        -9.0610   -2.1820    0.5880 hc        1 MOL      0.116239
    154 H72        -8.6540   -3.9460    0.7540 hc        1 MOL      0.116239
    155 H73        -9.7290   -4.3620   -1.3470 hc        1 MOL     -0.062725
    156 H74        -9.8800   -2.7110   -1.7120 hc        1 MOL     -0.062725
    157 H75       -11.5910   -2.3510   -0.1290 hx        1 MOL      0.086119
    158 H76       -11.2610   -3.9580    0.6890 hx        1 MOL      0.086119
    159 H77       -12.1140   -5.0700   -1.0410 hn        1 MOL      0.174491
    160 H78       -13.1430   -3.9140   -0.7750 hn        1 MOL      0.174491
    161 H79       -12.2090   -3.7480   -2.0660 hn        1 MOL      0.174491
    162 N14        -4.4670   -3.4920   -1.3600 n         1 MOL     -0.425680
    163 C49        -3.1870   -3.3430   -2.0840 c3        1 MOL      0.209268
    164 C50        -1.9640   -2.8220   -1.3290 c         1 MOL      0.336356
    165 O22        -1.3470   -1.8110   -1.6830 o         1 MOL     -0.526146
    166 C51        -2.7000   -4.7100   -2.6840 c3        1 MOL     -0.113233
    167 C52        -3.5150   -5.1880   -3.9270 c3        1 MOL     -0.363733
    168 C53        -2.9590   -6.5470   -4.4460 c         1 MOL      0.718265
    169 O23        -3.1970   -7.6480   -3.9430 o         1 MOL     -0.626084
    170 O24        -2.2100   -6.4850   -5.4350 o         1 MOL     -0.626084
    171 H80        -4.8380   -4.4060   -1.1690 hn        1 MOL      0.329031
    172 H81        -3.3390   -2.6580   -2.9200 h1        1 MOL      0.033207
    173 H82        -2.6810   -5.4410   -1.8730 hc        1 MOL      0.113406
    174 H83        -1.6660   -4.5030   -2.9550 hc        1 MOL      0.113406
    175 H84        -3.4720   -4.4180   -4.7010 hc        1 MOL      0.071762
    176 H85        -4.5750   -5.1560   -3.6630 hc        1 MOL      0.071762
    177 N15        -1.5780   -3.3520   -0.0990 n         1 MOL     -0.292520
    178 C54        -2.0430   -4.5880    0.5670 c3        1 MOL      0.081621
    179 H86        -1.3130   -5.3820    0.4100 h1        1 MOL     -0.002251
    180 H87        -2.1570   -4.4060    1.6350 h1        1 MOL     -0.002251
    181 H88        -3.0020   -4.8900    0.1450 h1        1 MOL     -0.002251
    182 H89        -0.9290   -2.7790    0.4230 hn        1 MOL      0.300619
    183 Ca1        -0.5870    0.6370   -1.2660 Ca        1 MOL      1.843980
    184 O25         0.5340   -0.3550   -3.6930 oh        1 MOL     -0.894147
    185 H90         0.7730    0.4800   -4.0910 ho        1 MOL      0.411499
    186 H91         0.5060   -0.9720   -4.4240 ho        1 MOL      0.411499
    187 O26        -2.2810    0.8790   -3.3900 oh        1 MOL     -0.894147
    188 H92        -1.9990    1.3790   -4.1620 ho        1 MOL      0.411499
    189 H93        -2.8290    0.1770   -3.7500 ho        1 MOL      0.411499
    190 O27        -3.2470    0.8310   -0.3180 oh        1 MOL     -0.894147
    191 H94        -3.9110    0.2270   -0.6320 ho        1 MOL      0.411499
    192 H95        -3.7360    1.5670    0.0490 ho        1 MOL      0.411499
@<TRIPOS>BOND
     1    1    2 1   
     2    1    4 1   
     3    1    5 1   
     4    1    6 1   
     5    2    3 2   
     6    2    7 1   
     7    7    8 1   
     8    7   15 1   
     9    8    9 1   
    10    8   11 1   
    11    8   16 1   
    12    9   10 2   
    13    9   19 1   
    14   11   12 1   
    15   11   17 1   
    16   11   18 1   
    17   12   13 1   
    18   12   14 1   
    19   19   20 1   
    20   19   28 1   
    21   20   21 1   
    22   20   23 1   
    23   20   29 1   
    24   21   22 2   
    25   21   41 1   
    26   23   24 1   
    27   23   30 1   
    28   23   31 1   
    29   24   25 1   
    30   24   32 1   
    31   24   33 1   
    32   25   26 1   
    33   25   34 1   
    34   25   35 1   
    35   26   27 1   
    36   26   36 1   
    37   26   37 1   
    38   27   38 1   
    39   27   39 1   
    40   27   40 1   
    41   41   42 1   
    42   41   49 1   
    43   42   43 1   
    44   42   45 1   
    45   42   50 1   
    46   43   44 2   
    47   43   53 1   
    48   45   46 1   
    49   45   51 1   
    50   45   52 1   
    51   46   47 1   
    52   46   48 1   
    53   53   54 1   
    54   53   57 1   
    55   54   55 1   
    56   54   58 1   
    57   54   59 1   
    58   55   56 2   
    59   55   60 1   
    60   60   61 1   
    61   60   68 1   
    62   61   62 1   
    63   61   64 1   
    64   61   69 1   
    65   62   63 2   
    66   62   72 1   
    67   64   65 1   
    68   64   70 1   
    69   64   71 1   
    70   65   66 1   
    71   65   67 1   
    72   72   73 1   
    73   72   76 1   
    74   73   74 1   
    75   73   77 1   
    76   73   78 1   
    77   74   75 2   
    78   74   79 1   
    79   79   80 1   
    80   79   86 1   
    81   80   81 1   
    82   80   83 1   
    83   80   87 1   
    84   81   82 2   
    85   81   93 1   
    86   83   84 1   
    87   83   85 1   
    88   83   88 1   
    89   84   90 1   
    90   84   91 1   
    91   84   92 1   
    92   85   89 1   
    93   93   94 1   
    94   93  101 1   
    95   94   95 1   
    96   94   97 1   
    97   94  102 1   
    98   95   96 2   
    99   95  112 1   
   100   97   98 1   
   101   97   99 1   
   102   97  103 1   
   103   98  100 1   
   104   98  104 1   
   105   98  105 1   
   106   99  106 1   
   107   99  107 1   
   108   99  108 1   
   109  100  109 1   
   110  100  110 1   
   111  100  111 1   
   112  112  113 1   
   113  112  119 1   
   114  113  114 1   
   115  113  116 1   
   116  113  120 1   
   117  114  115 2   
   118  114  126 1   
   119  116  117 1   
   120  116  118 1   
   121  116  121 1   
   122  117  123 1   
   123  117  124 1   
   124  117  125 1   
   125  118  122 1   
   126  126  127 1   
   127  126  133 1   
   128  127  128 1   
   129  127  130 1   
   130  127  134 1   
   131  128  129 2   
   132  128  140 1   
   133  130  131 1   
   134  130  132 1   
   135  130  135 1   
   136  131  137 1   
   137  131  138 1   
   138  131  139 1   
   139  132  136 1   
   140  140  141 1   
   141  140  149 1   
   142  141  142 1   
   143  141  144 1   
   144  141  150 1   
   145  142  143 2   
   146  142  162 1   
   147  144  145 1   
   148  144  151 1   
   149  144  152 1   
   150  145  146 1   
   151  145  153 1   
   152  145  154 1   
   153  146  147 1   
   154  146  155 1   
   155  146  156 1   
   156  147  148 1   
   157  147  157 1   
   158  147  158 1   
   159  148  159 1   
   160  148  160 1   
   161  148  161 1   
   162  162  163 1   
   163  162  171 1   
   164  163  164 1   
   165  163  166 1   
   166  163  172 1   
   167  164  165 2   
   168  164  177 1   
   169  166  167 1   
   170  166  173 1   
   171  166  174 1   
   172  167  168 1   
   173  167  175 1   
   174  167  176 1   
   175  168  169 1   
   176  168  170 1   
   177  177  178 1   
   178  177  182 1   
   179  178  179 1   
   180  178  180 1   
   181  178  181 1   
   182  184  185 1   
   183  184  186 1   
   184  187  188 1   
   185  187  189 1   
   186  190  191 1   
   187  190  192 1   
@<TRIPOS>SUBSTRUCTURE
     1 MOL         1 TEMP              0 ****  ****    0 ROOT
