@<TRIPOS>MOLECULE
MOL
  195   189     1     0     0
SMALL
resp


@<TRIPOS>ATOM
      1 C1          4.1580   -2.0510   -2.8960 c3        1 MOL     -0.143476
      2 C2          3.0210   -2.5250   -1.9370 c         1 MOL      0.515775
      3 O1          2.1590   -1.7180   -1.5050 o         1 MOL     -0.487753
      4 H1          4.1450   -2.6580   -3.8020 hc        1 MOL      0.028206
      5 H2          4.0000   -1.0050   -3.1580 hc        1 MOL      0.028206
      6 H3          5.1220   -2.1600   -2.4000 hc        1 MOL      0.028206
      7 N1          3.0600   -3.7900   -1.5660 n         1 MOL     -0.335649
      8 C3          2.1880   -4.5040   -0.5740 c3        1 MOL     -0.075494
      9 C4          0.6420   -4.4100   -0.7120 c         1 MOL      0.726554
     10 O2         -0.0790   -4.3810    0.2520 o         1 MOL     -0.554694
     11 C5          2.7090   -4.2550    0.8910 c3        1 MOL     -0.299136
     12 C6          4.1260   -4.5950    1.1240 c         1 MOL      0.800354
     13 O3          4.8340   -3.8390    1.8400 o         1 MOL     -0.757549
     14 O4          4.6620   -5.4350    0.3950 o         1 MOL     -0.757549
     15 H4          3.9470   -4.2400   -1.7410 hn        1 MOL      0.217804
     16 H5          2.3560   -5.5610   -0.8000 h1        1 MOL      0.094488
     17 H6          2.0990   -4.7710    1.6270 hc        1 MOL      0.100771
     18 H7          2.6560   -3.2080    1.1820 hc        1 MOL      0.100771
     19 N2          0.1750   -4.3410   -1.9010 n         1 MOL     -0.533458
     20 C7         -1.2490   -4.4120   -2.2120 c3        1 MOL     -0.055691
     21 C8         -1.9780   -5.7710   -1.7930 c         1 MOL      0.592654
     22 O5         -1.2540   -6.8030   -1.8460 o         1 MOL     -0.598129
     23 C9         -1.4740   -4.0140   -3.6790 c3        1 MOL     -0.082126
     24 C10        -1.0310   -5.1280   -4.6820 c3        1 MOL      0.147489
     25 C11        -0.8190   -2.5850   -3.9320 c3        1 MOL     -0.128819
     26 C12        -1.0790   -4.6960   -6.1170 c3        1 MOL     -0.199673
     27 H8          0.8290   -4.2170   -2.6590 hn        1 MOL      0.257065
     28 H9         -1.6950   -3.6450   -1.5930 h1        1 MOL      0.162507
     29 H10        -2.5290   -3.9710   -3.9390 hc        1 MOL      0.087130
     30 H11        -1.6020   -6.0470   -4.5840 hc        1 MOL     -0.008590
     31 H12        -0.0140   -5.4380   -4.4530 hc        1 MOL     -0.008590
     32 H13        -1.1310   -1.7980   -3.2500 hc        1 MOL      0.049219
     33 H14         0.2710   -2.6740   -3.8950 hc        1 MOL      0.049219
     34 H15        -1.0060   -2.2060   -4.9330 hc        1 MOL      0.049219
     35 H16        -2.1010   -4.4600   -6.4050 hc        1 MOL      0.034580
     36 H17        -0.5340   -3.7980   -6.4160 hc        1 MOL      0.034580
     37 H18        -0.6890   -5.4810   -6.7550 hc        1 MOL      0.034580
     38 N3         -3.2850   -5.8820   -1.5920 n         1 MOL     -0.478598
     39 C13        -4.1330   -4.8670   -1.0460 c3        1 MOL      0.083912
     40 C14        -5.1430   -5.4660    0.0240 c         1 MOL      0.509953
     41 O6         -5.3460   -6.6930   -0.1400 o         1 MOL     -0.571752
     42 C15        -4.9230   -4.2550   -2.2370 c3        1 MOL     -0.228163
     43 C16        -5.8180   -3.1210   -1.8060 c         1 MOL      0.756321
     44 O7         -5.5110   -2.4160   -0.8290 o         1 MOL     -0.720689
     45 O8         -6.8850   -2.9040   -2.4890 o         1 MOL     -0.720689
     46 H19        -3.6730   -6.7970   -1.7560 hn        1 MOL      0.303008
     47 H20        -3.5380   -4.0810   -0.5700 h1        1 MOL      0.028020
     48 H21        -5.6020   -5.0090   -2.6430 hc        1 MOL      0.042286
     49 H22        -4.2490   -3.9430   -3.0430 hc        1 MOL      0.042286
     50 N4         -5.6250   -4.8000    1.0450 n         1 MOL     -0.212690
     51 C17        -6.6600   -5.2620    1.9510 c3        1 MOL     -0.358317
     52 C18        -7.5890   -4.1570    2.3570 c         1 MOL      0.767840
     53 O9         -8.5630   -4.4100    3.0270 o         1 MOL     -0.606986
     54 H23        -5.3000   -3.8540    1.1710 hn        1 MOL      0.214773
     55 H24        -6.0920   -5.6650    2.7870 h1        1 MOL      0.140968
     56 H25        -7.1670   -6.0690    1.4160 h1        1 MOL      0.140968
     57 N5         -7.3200   -2.8790    1.9100 n         1 MOL     -0.654344
     58 C19        -8.0920   -1.7220    2.3110 c3        1 MOL      0.195064
     59 C20        -8.5230   -0.8010    1.0940 c         1 MOL      0.236654
     60 O10        -9.4910   -0.0830    1.3460 o         1 MOL     -0.528093
     61 C21        -7.3420   -0.8660    3.3460 c3        1 MOL     -0.234113
     62 C22        -5.8740   -0.6120    2.9400 c         1 MOL      0.761891
     63 O11        -4.9520   -1.3230    3.4330 o         1 MOL     -0.701494
     64 O12        -5.5850    0.2810    2.0510 o         1 MOL     -0.701494
     65 H26        -6.5250   -2.6410    1.3340 hn        1 MOL      0.416120
     66 H27        -8.9470   -2.0500    2.8930 h1        1 MOL      0.073999
     67 H28        -7.3670   -1.3760    4.3020 hc        1 MOL      0.041085
     68 H29        -7.8580    0.0940    3.4180 hc        1 MOL      0.041085
     69 N6         -7.9300   -0.8760   -0.1190 n         1 MOL      0.014702
     70 C23        -8.2130    0.2050   -1.1480 c3        1 MOL     -0.253456
     71 C24        -7.8890    1.6430   -0.7500 c         1 MOL      0.599726
     72 O13        -8.3670    2.5960   -1.3730 o         1 MOL     -0.621617
     73 H30        -7.2340   -1.5720   -0.3140 hn        1 MOL      0.080141
     74 H31        -9.2510   -0.0020   -1.4190 h1        1 MOL      0.120146
     75 H32        -7.5950    0.0420   -2.0320 h1        1 MOL      0.120146
     76 N7         -7.0600    1.9000    0.2980 n         1 MOL     -0.197197
     77 C25        -6.7490    3.1660    1.0300 c3        1 MOL     -0.004631
     78 C26        -6.1160    4.3420    0.1880 c         1 MOL      0.406599
     79 O14        -6.2340    5.5190    0.5360 o         1 MOL     -0.522613
     80 C27        -7.9370    3.6720    1.8390 c3        1 MOL     -0.020178
     81 C28        -8.4100    2.8950    3.0600 c3        1 MOL     -0.139704
     82 C29        -7.3770    2.7180    4.1760 c         1 MOL      0.550839
     83 N8         -7.6930    2.0960    5.2760 n         1 MOL     -0.758838
     84 O15        -6.1950    3.0940    4.1310 o         1 MOL     -0.517989
     85 H33        -6.6500    1.0490    0.6740 hn        1 MOL      0.184637
     86 H34        -5.8890    3.0310    1.6750 h1        1 MOL      0.110961
     87 H35        -8.7720    3.8110    1.1560 hc        1 MOL      0.031414
     88 H36        -7.7340    4.6500    2.2670 hc        1 MOL      0.031414
     89 H37        -8.8140    1.9100    2.8270 hc        1 MOL      0.042817
     90 H38        -9.2620    3.3270    3.5870 hc        1 MOL      0.042817
     91 H39        -8.6140    1.7420    5.4930 hn        1 MOL      0.342119
     92 H40        -6.9870    2.2090    5.9950 hn        1 MOL      0.342119
     93 N9         -5.4740    3.9540   -0.9640 n         1 MOL     -0.070657
     94 C30        -4.8440    4.9580   -1.8770 c3        1 MOL     -0.205983
     95 C31        -3.3790    4.7650   -2.1430 c         1 MOL      0.544800
     96 O16        -2.9100    5.2310   -3.1780 o         1 MOL     -0.568649
     97 C32        -5.5720    5.0570   -3.2540 c3        1 MOL      0.411926
     98 C33        -5.7610    3.6500   -3.8430 c3        1 MOL     -0.351283
     99 C34        -6.9170    5.7370   -3.1700 c3        1 MOL     -0.351283
    100 H41        -5.3450    2.9530   -1.0860 hn        1 MOL      0.125844
    101 H42        -4.8500    5.9100   -1.3580 h1        1 MOL      0.098133
    102 H43        -5.0310    5.7010   -3.9500 hc        1 MOL     -0.032304
    103 H44        -4.8480    3.1580   -4.1670 hc        1 MOL      0.068564
    104 H45        -6.3820    3.0050   -3.2210 hc        1 MOL      0.068564
    105 H46        -6.1520    3.8150   -4.8500 hc        1 MOL      0.068564
    106 H47        -6.8730    6.7400   -2.7530 hc        1 MOL      0.068564
    107 H48        -7.2400    5.8140   -4.2150 hc        1 MOL      0.068564
    108 H49        -7.6190    5.1150   -2.6230 hc        1 MOL      0.068564
    109 N10        -2.6360    4.0030   -1.3310 n         1 MOL     -0.453404
    110 C35        -1.2830    3.4920   -1.5850 c3        1 MOL      0.253541
    111 C36        -0.3850    3.5880   -0.2990 c         1 MOL      0.492486
    112 O17        -0.8010    3.8990    0.8060 o         1 MOL     -0.497773
    113 C37        -1.3840    2.0910   -2.3310 c3        1 MOL     -0.227605
    114 C38        -0.0540    1.2950   -2.5110 c         1 MOL      0.543715
    115 N11         0.2150    0.3110   -1.6710 n         1 MOL     -0.576941
    116 O18         0.7140    1.5200   -3.4450 o         1 MOL     -0.572830
    117 H50        -3.0040    3.6700   -0.4590 hn        1 MOL      0.225282
    118 H51        -0.8700    4.1230   -2.3700 h1        1 MOL      0.028044
    119 H52        -1.8830    2.1400   -3.3000 hc        1 MOL      0.088373
    120 H53        -2.0400    1.5140   -1.6920 hc        1 MOL      0.088373
    121 H54        -0.4140    0.0520   -0.9290 hn        1 MOL      0.291780
    122 H55         0.9210   -0.3890   -1.8560 hn        1 MOL      0.291780
    123 N12         0.9340    3.5370   -0.5640 n         1 MOL     -0.562819
    124 C39         1.9590    3.5310    0.4770 c3        1 MOL      0.212399
    125 C40         3.3220    3.7310   -0.1300 c         1 MOL      0.612962
    126 O19         3.5900    3.2400   -1.2170 o         1 MOL     -0.578292
    127 C41         1.9550    2.2790    1.3160 c3        1 MOL     -0.034984
    128 C42         2.7210    2.4550    2.5680 ca        1 MOL      0.008830
    129 C43         3.9660    1.8730    2.6970 ca        1 MOL     -0.125321
    130 C44         2.1860    3.1600    3.6910 ca        1 MOL     -0.125321
    131 C45         4.7620    2.0710    3.8480 ca        1 MOL     -0.313821
    132 C46         2.9450    3.3180    4.8370 ca        1 MOL     -0.313821
    133 C47         4.2770    2.8470    4.9280 ca        1 MOL      0.420912
    134 O20         5.1030    2.9890    5.9970 oh        1 MOL     -0.556585
    135 H56         1.2100    3.4250   -1.5290 hn        1 MOL      0.297266
    136 H57         1.8140    4.4060    1.1120 h1        1 MOL      0.034092
    137 H58         2.3270    1.4430    0.7350 hc        1 MOL      0.042607
    138 H59         0.9290    1.9750    1.5350 hc        1 MOL      0.042607
    139 H60         4.3900    1.3710    1.8430 ha        1 MOL      0.138429
    140 H61         1.1650    3.4790    3.5760 ha        1 MOL      0.138429
    141 H62         5.7190    1.5600    3.8850 ha        1 MOL      0.155321
    142 H63         2.5040    3.8820    5.6430 ha        1 MOL      0.155321
    143 H64         5.8650    2.4090    5.9790 ho        1 MOL      0.389307
    144 N13         4.2840    4.3090    0.6180 n         1 MOL     -0.638616
    145 C48         5.6150    4.5870    0.1220 c3        1 MOL      0.179960
    146 C49         6.6410    3.7240    0.9040 c         1 MOL      0.550454
    147 O21         7.0030    3.9520    2.0120 o         1 MOL     -0.568227
    148 C50         5.9410    6.0680    0.4570 c3        1 MOL     -0.119318
    149 C51         5.2580    6.9380   -0.6200 c3        1 MOL     -0.161764
    150 C52         5.6980    8.4410   -0.4990 c         1 MOL      0.637750
    151 O22         6.9140    8.8670   -0.7260 o         1 MOL     -0.678961
    152 O23         4.8090    9.2470   -0.0590 o         1 MOL     -0.678961
    153 H65         4.1670    4.5230    1.5910 hn        1 MOL      0.332922
    154 H66         5.6390    4.3500   -0.9500 h1        1 MOL      0.100779
    155 H67         7.0220    6.2190    0.5580 hc        1 MOL      0.070318
    156 H68         5.5090    6.3940    1.4030 hc        1 MOL      0.070318
    157 H69         4.1790    6.9550   -0.5520 hc        1 MOL      0.031108
    158 H70         5.4850    6.6680   -1.6560 hc        1 MOL      0.031108
    159 N14         7.0050    2.5960    0.3150 n         1 MOL     -0.469443
    160 C53         6.6460    2.1190   -1.0350 c3        1 MOL     -0.083230
    161 C54         7.1940    2.9650   -2.2100 c         1 MOL      0.427917
    162 O24         8.2740    3.5580   -2.0550 o         1 MOL     -0.528059
    163 C55         7.0820    0.6610   -1.2730 c3        1 MOL      0.040695
    164 C56         6.3670   -0.3480   -0.3530 c3        1 MOL     -0.029857
    165 C57         7.3240   -1.5360   -0.0040 c         1 MOL      0.761886
    166 O25         6.9050   -2.7180   -0.2190 o         1 MOL     -0.753827
    167 O26         8.4000   -1.3680    0.5230 o         1 MOL     -0.753827
    168 H71         7.7540    2.0830    0.7590 hn        1 MOL      0.325005
    169 H72         5.5800    2.2030   -1.2710 h1        1 MOL      0.132312
    170 H73         8.1640    0.5400   -1.1420 hc        1 MOL      0.006133
    171 H74         6.7980    0.3540   -2.2780 hc        1 MOL      0.006133
    172 H75         5.3710   -0.6680   -0.6520 hc        1 MOL      0.001050
    173 H76         6.3230    0.1050    0.6380 hc        1 MOL      0.001050
    174 N15         6.5900    3.0120   -3.3950 n         1 MOL     -0.303570
    175 C58         6.8890    3.8580   -4.5660 c3        1 MOL     -0.145842
    176 H77         7.1160    3.2240   -5.4240 h1        1 MOL      0.084865
    177 H78         6.0260    4.4820   -4.7950 h1        1 MOL      0.084865
    178 H79         7.7490    4.4920   -4.3460 h1        1 MOL      0.084865
    179 H80         5.6570    2.6330   -3.4080 hn        1 MOL      0.264838
    180 Ca1         7.0900   -4.8060    1.2460 Ca        1 MOL      1.687610
    181 O27         9.3790   -4.7530   -0.1150 oh        1 MOL     -0.792937
    182 H81        10.3140   -4.8600    0.0200 ho        1 MOL      0.376379
    183 H82         9.2940   -4.5520   -1.0490 ho        1 MOL      0.376379
    184 O28         7.2290   -7.4720    0.9840 oh        1 MOL     -0.792937
    185 H83         6.8120   -7.9860    1.6710 ho        1 MOL      0.376379
    186 H84         7.9540   -8.0210    0.6860 ho        1 MOL      0.376379
    187 O29         9.3630   -5.7810    2.6650 oh        1 MOL     -0.792937
    188 H85        10.0910   -5.8090    2.0360 ho        1 MOL      0.376379
    189 H86         9.7330   -5.3770    3.4470 ho        1 MOL      0.376379
    190 O30         8.3520   -2.8700    2.6810 oh        1 MOL     -0.792937
    191 H87         8.9590   -2.5540    3.3480 ho        1 MOL      0.376379
    192 H88         8.5800   -2.3830    1.8920 ho        1 MOL      0.376379
    193 O31         6.2920   -5.5170    3.6410 oh        1 MOL     -0.792937
    194 H89         6.2780   -6.3870    4.0240 ho        1 MOL      0.376379
    195 H90         5.6400   -5.0190    4.1320 ho        1 MOL      0.376379
@<TRIPOS>BOND
     1    1    2 1   
     2    1    4 1   
     3    1    5 1   
     4    1    6 1   
     5    2    3 2   
     6    2    7 1   
     7    7    8 1   
     8    7   15 1   
     9    8    9 1   
    10    8   11 1   
    11    8   16 1   
    12    9   10 2   
    13    9   19 1   
    14   11   12 1   
    15   11   17 1   
    16   11   18 1   
    17   12   13 1   
    18   12   14 1   
    19   19   20 1   
    20   19   27 1   
    21   20   21 1   
    22   20   23 1   
    23   20   28 1   
    24   21   22 2   
    25   21   38 1   
    26   23   24 1   
    27   23   25 1   
    28   23   29 1   
    29   24   26 1   
    30   24   30 1   
    31   24   31 1   
    32   25   32 1   
    33   25   33 1   
    34   25   34 1   
    35   26   35 1   
    36   26   36 1   
    37   26   37 1   
    38   38   39 1   
    39   38   46 1   
    40   39   40 1   
    41   39   42 1   
    42   39   47 1   
    43   40   41 2   
    44   40   50 1   
    45   42   43 1   
    46   42   48 1   
    47   42   49 1   
    48   43   44 1   
    49   43   45 1   
    50   50   51 1   
    51   50   54 1   
    52   51   52 1   
    53   51   55 1   
    54   51   56 1   
    55   52   53 2   
    56   52   57 1   
    57   57   58 1   
    58   57   65 1   
    59   58   59 1   
    60   58   61 1   
    61   58   66 1   
    62   59   60 2   
    63   59   69 1   
    64   61   62 1   
    65   61   67 1   
    66   61   68 1   
    67   62   63 1   
    68   62   64 1   
    69   69   70 1   
    70   69   73 1   
    71   70   71 1   
    72   70   74 1   
    73   70   75 1   
    74   71   72 2   
    75   71   76 1   
    76   76   77 1   
    77   76   85 1   
    78   77   78 1   
    79   77   80 1   
    80   77   86 1   
    81   78   79 2   
    82   78   93 1   
    83   80   81 1   
    84   80   87 1   
    85   80   88 1   
    86   81   82 1   
    87   81   89 1   
    88   81   90 1   
    89   82   83 1   
    90   82   84 2   
    91   83   91 1   
    92   83   92 1   
    93   93   94 1   
    94   93  100 1   
    95   94   95 1   
    96   94   97 1   
    97   94  101 1   
    98   95   96 2   
    99   95  109 1   
   100   97   98 1   
   101   97   99 1   
   102   97  102 1   
   103   98  103 1   
   104   98  104 1   
   105   98  105 1   
   106   99  106 1   
   107   99  107 1   
   108   99  108 1   
   109  109  110 1   
   110  109  117 1   
   111  110  111 1   
   112  110  113 1   
   113  110  118 1   
   114  111  112 2   
   115  111  123 1   
   116  113  114 1   
   117  113  119 1   
   118  113  120 1   
   119  114  115 1   
   120  114  116 2   
   121  115  121 1   
   122  115  122 1   
   123  123  124 1   
   124  123  135 1   
   125  124  125 1   
   126  124  127 1   
   127  124  136 1   
   128  125  126 2   
   129  125  144 1   
   130  127  128 1   
   131  127  137 1   
   132  127  138 1   
   133  128  129 ar  
   134  128  130 ar  
   135  129  131 ar  
   136  129  139 1   
   137  130  132 ar  
   138  130  140 1   
   139  131  133 ar  
   140  131  141 1   
   141  132  133 ar  
   142  132  142 1   
   143  133  134 1   
   144  134  143 1   
   145  144  145 1   
   146  144  153 1   
   147  145  146 1   
   148  145  148 1   
   149  145  154 1   
   150  146  147 2   
   151  146  159 1   
   152  148  149 1   
   153  148  155 1   
   154  148  156 1   
   155  149  150 1   
   156  149  157 1   
   157  149  158 1   
   158  150  151 1   
   159  150  152 1   
   160  159  160 1   
   161  159  168 1   
   162  160  161 1   
   163  160  163 1   
   164  160  169 1   
   165  161  162 2   
   166  161  174 1   
   167  163  164 1   
   168  163  170 1   
   169  163  171 1   
   170  164  165 1   
   171  164  172 1   
   172  164  173 1   
   173  165  166 1   
   174  165  167 1   
   175  174  175 1   
   176  174  179 1   
   177  175  176 1   
   178  175  177 1   
   179  175  178 1   
   180  181  182 1   
   181  181  183 1   
   182  184  185 1   
   183  184  186 1   
   184  187  188 1   
   185  187  189 1   
   186  190  191 1   
   187  190  192 1   
   188  193  194 1   
   189  193  195 1   
@<TRIPOS>SUBSTRUCTURE
     1 MOL         1 TEMP              0 ****  ****    0 ROOT
