@<TRIPOS>MOLECULE
MOL
  178   175     1     0     0
SMALL
resp


@<TRIPOS>ATOM
      1 C1          1.3200   -5.5860    3.1250 c3        1 MOL     -0.283741
      2 C2          2.5540   -5.0520    2.3760 c         1 MOL      0.687834
      3 O1          2.5300   -4.9870    1.1590 o         1 MOL     -0.550950
      4 H1          0.7850   -4.7540    3.5830 hc        1 MOL      0.072482
      5 H2          0.6610   -6.0980    2.4230 hc        1 MOL      0.072482
      6 H3          1.6380   -6.2830    3.9000 hc        1 MOL      0.072482
      7 N1          3.6580   -4.7010    3.1010 n         1 MOL     -0.732084
      8 C3          5.0410   -4.6630    2.5110 c3        1 MOL      0.349724
      9 C4          5.3220   -3.8230    1.1890 c         1 MOL      0.487241
     10 O2          5.1650   -2.5990    1.1340 o         1 MOL     -0.550033
     11 C5          6.0900   -4.3010    3.5590 c3        1 MOL     -0.308722
     12 C6          7.5890   -4.6040    3.1620 c         1 MOL      0.753575
     13 O3          7.7890   -5.2410    2.1150 o         1 MOL     -0.730192
     14 O4          8.5210   -4.2990    3.9410 o         1 MOL     -0.730192
     15 H4          3.6440   -4.9060    4.0850 hn        1 MOL      0.357119
     16 H5          5.3190   -5.6710    2.2140 h1        1 MOL     -0.016185
     17 H6          5.8650   -4.7910    4.5110 hc        1 MOL      0.035140
     18 H7          5.9850   -3.2190    3.6840 hc        1 MOL      0.035140
     19 N2          5.5150   -4.5170    0.0750 n         1 MOL     -0.390779
     20 C7          5.6180   -3.9140   -1.2190 c3        1 MOL      0.500054
     21 C8          4.2170   -4.0770   -1.9080 c         1 MOL      0.337793
     22 O5          3.5360   -5.0760   -1.7140 o         1 MOL     -0.548183
     23 C9          6.7320   -4.6070   -2.0680 c3        1 MOL     -0.484289
     24 H8          5.5070   -5.5330    0.0890 hn        1 MOL      0.235599
     25 H9          5.8350   -2.8540   -1.1030 h1        1 MOL     -0.055635
     26 H10         6.7270   -4.1980   -3.0760 hc        1 MOL      0.115588
     27 H11         7.6610   -4.3690   -1.5650 hc        1 MOL      0.115588
     28 H12         6.5940   -5.6910   -2.0170 hc        1 MOL      0.115588
     29 N3          3.7080   -3.1440   -2.7010 n         1 MOL     -0.311348
     30 C10         4.3310   -1.9680   -3.3810 c3        1 MOL     -0.032691
     31 C11         4.3660   -0.7180   -2.4340 c         1 MOL      0.626665
     32 O6          3.5110   -0.5550   -1.5820 o         1 MOL     -0.546356
     33 C12         3.5800   -1.5130   -4.6530 c3        1 MOL     -0.128974
     34 C13         2.0740   -1.2850   -4.5290 c         1 MOL      0.679785
     35 O7          1.4610   -1.6240   -3.4960 o         1 MOL     -0.680982
     36 O8          1.4120   -0.8080   -5.4880 o         1 MOL     -0.680982
     37 H13         2.7510   -3.2770   -3.0140 hn        1 MOL      0.256002
     38 H14         5.3350   -2.2660   -3.6830 h1        1 MOL      0.038672
     39 H15         3.8020   -2.2240   -5.4510 hc        1 MOL      0.023457
     40 H16         4.0450   -0.6210   -5.0800 hc        1 MOL      0.023457
     41 N4          5.3480    0.1710   -2.6580 n         1 MOL     -0.560677
     42 C14         5.4850    1.4680   -1.9900 c3        1 MOL      0.094968
     43 C15         6.3160    1.4080   -0.6320 c         1 MOL      0.531043
     44 O9          6.7280    0.3260   -0.1340 o         1 MOL     -0.458533
     45 H17         6.0840   -0.0340   -3.3130 hn        1 MOL      0.312399
     46 H18         4.4960    1.9170   -1.8720 h1        1 MOL      0.067829
     47 H19         6.0120    2.1020   -2.7130 h1        1 MOL      0.067829
     48 N5          6.4320    2.5510    0.0830 n         1 MOL     -0.624626
     49 C16         5.8850    3.8920   -0.1540 c3        1 MOL     -0.031404
     50 C17         5.1790    4.5260    1.0570 c         1 MOL      0.655780
     51 O10         5.2430    5.7060    1.2230 o         1 MOL     -0.531863
     52 C18         7.0750    4.8260   -0.6330 c3        1 MOL     -0.114342
     53 C19         7.5960    4.4370   -2.0070 c         1 MOL      0.652745
     54 N6          7.3270    5.2220   -3.0470 n         1 MOL     -0.830694
     55 O11         8.4240    3.5360   -2.1470 o         1 MOL     -0.545188
     56 H20         7.0950    2.5210    0.8430 hn        1 MOL      0.349013
     57 H21         5.1860    3.8620   -0.9930 h1        1 MOL      0.065598
     58 H22         7.9200    4.9140    0.0480 hc        1 MOL      0.054346
     59 H23         6.7890    5.8700   -0.7660 hc        1 MOL      0.054346
     60 H24         6.5750    5.8970   -3.0300 hn        1 MOL      0.374242
     61 H25         7.9030    5.1390   -3.8760 hn        1 MOL      0.374242
     62 N7          4.5420    3.6590    1.8910 n         1 MOL     -0.373503
     63 C20         4.0250    4.1080    3.1900 c3        1 MOL     -0.166601
     64 C21         2.6530    4.7890    3.1580 c         1 MOL      0.478055
     65 O12         2.2610    5.4960    4.1140 o         1 MOL     -0.553145
     66 H26         4.6520    2.6860    1.6370 hn        1 MOL      0.276401
     67 H27         4.7060    4.8060    3.6680 h1        1 MOL      0.126015
     68 H28         3.8890    3.2990    3.9090 h1        1 MOL      0.126015
     69 N8          1.8860    4.7320    2.0640 n         1 MOL     -0.249121
     70 C22         0.5230    5.2470    1.8280 c3        1 MOL      0.182396
     71 C23        -0.4670    4.0410    1.8540 c         1 MOL      0.465565
     72 O13        -0.0210    2.8830    1.6880 o         1 MOL     -0.556368
     73 C24         0.3520    5.9540    0.4860 c3        1 MOL      0.159344
     74 C25         1.3630    7.1410    0.3490 c3        1 MOL     -0.265347
     75 O14         0.6560    4.9680   -0.5170 oh        1 MOL     -0.552067
     76 H29         2.2260    4.2280    1.2610 hn        1 MOL      0.179487
     77 H30         0.2610    5.9250    2.6360 h1        1 MOL      0.012906
     78 H31        -0.6570    6.3540    0.4140 h1        1 MOL      0.027659
     79 H32         0.1500    5.3510   -1.2310 ho        1 MOL      0.415542
     80 H33         2.3800    6.9380    0.7030 hc        1 MOL      0.064817
     81 H34         1.4630    7.3970   -0.7050 hc        1 MOL      0.064817
     82 H35         1.0430    8.0540    0.8550 hc        1 MOL      0.064817
     83 N9         -1.7360    4.4300    1.9980 n         1 MOL     -0.494145
     84 C26        -2.7880    3.6390    1.4500 c3        1 MOL     -0.069434
     85 C27        -2.9680    3.8480   -0.0670 c         1 MOL      0.386941
     86 O15        -3.2340    4.9530   -0.5710 o         1 MOL     -0.553976
     87 C28        -4.1370    3.8460    2.2280 c3        1 MOL      0.118310
     88 C29        -5.2540    2.8600    1.5750 c3        1 MOL      0.147935
     89 C30        -3.9760    3.6150    3.7270 c3        1 MOL     -0.257443
     90 C31        -6.6560    2.9280    2.1240 c3        1 MOL     -0.125341
     91 H36        -1.8020    5.4390    1.9820 hn        1 MOL      0.305310
     92 H37        -2.5180    2.5930    1.6060 h1        1 MOL      0.274466
     93 H38        -4.4640    4.8610    2.0160 hc        1 MOL      0.001836
     94 H39        -4.9230    1.8240    1.6270 hc        1 MOL     -0.021192
     95 H40        -5.3430    3.0720    0.5090 hc        1 MOL     -0.021192
     96 H41        -3.4490    4.4010    4.2660 hc        1 MOL      0.056694
     97 H42        -4.9530    3.3850    4.1560 hc        1 MOL      0.056694
     98 H43        -3.4080    2.7410    4.0190 hc        1 MOL      0.056694
     99 H44        -7.3170    2.4970    1.3700 hc        1 MOL      0.003731
    100 H45        -6.7150    2.3810    3.0640 hc        1 MOL      0.003731
    101 H46        -6.9490    3.9800    2.2420 hc        1 MOL      0.003731
    102 N10        -2.7980    2.7310   -0.7930 n         1 MOL     -0.193233
    103 C32        -3.0960    2.5930   -2.2480 c3        1 MOL     -0.108885
    104 C33        -4.1760    1.5440   -2.6130 c         1 MOL      0.516754
    105 O16        -4.5760    1.4810   -3.7780 o         1 MOL     -0.531843
    106 C34        -1.7360    2.2750   -2.9560 c3        1 MOL     -0.227470
    107 C35        -0.7840    1.2780   -2.3300 c         1 MOL      0.863350
    108 O17         0.4280    1.3840   -2.2590 o         1 MOL     -0.771860
    109 O18        -1.2380    0.1020   -2.0640 o         1 MOL     -0.771860
    110 H47        -2.4310    1.8910   -0.3750 hn        1 MOL      0.209216
    111 H48        -3.4890    3.5460   -2.6040 h1        1 MOL      0.129667
    112 H49        -1.1410    3.1910   -2.9440 hc        1 MOL      0.068540
    113 H50        -1.8960    1.9910   -3.9940 hc        1 MOL      0.068540
    114 N11        -4.7940    0.8120   -1.6470 n         1 MOL     -0.398792
    115 C36        -5.9650   -0.1470   -1.8250 c3        1 MOL      0.246150
    116 C37        -5.8750   -1.3320   -0.8720 c         1 MOL      0.288316
    117 O19        -6.6270   -1.4440    0.0890 o         1 MOL     -0.477136
    118 C38        -7.2550    0.6620   -1.5660 c3        1 MOL     -0.348896
    119 C39        -8.4420    0.0190   -1.9680 ca        1 MOL      0.279339
    120 C40        -9.4380   -0.2140   -0.9830 ca        1 MOL     -0.270928
    121 C41        -8.6530   -0.4490   -3.2920 ca        1 MOL     -0.270928
    122 C42       -10.6780   -0.8300   -1.2960 ca        1 MOL     -0.046970
    123 C43        -9.9190   -0.9880   -3.6110 ca        1 MOL     -0.046970
    124 C44       -10.8940   -1.2090   -2.6520 ca        1 MOL     -0.216567
    125 H51        -4.2700    0.6400   -0.8080 hn        1 MOL      0.165864
    126 H52        -5.9840   -0.3560   -2.8990 h1        1 MOL      0.049379
    127 H53        -7.2040    1.5420   -2.2040 hc        1 MOL      0.123322
    128 H54        -7.2710    0.9370   -0.5070 hc        1 MOL      0.123322
    129 H55        -9.2220   -0.0760    0.0630 ha        1 MOL      0.148340
    130 H56        -7.8800   -0.4130   -4.0570 ha        1 MOL      0.148340
    131 H57       -11.4450   -0.9660   -0.5420 ha        1 MOL      0.091051
    132 H58       -10.0460   -1.3170   -4.6230 ha        1 MOL      0.091051
    133 H59       -11.8100   -1.7580   -2.8540 ha        1 MOL      0.111266
    134 N12        -4.9400   -2.3150   -1.0190 n         1 MOL     -0.139858
    135 C45        -4.9370   -3.5720   -0.2550 c3        1 MOL      0.230482
    136 C46        -4.7090   -3.4320    1.2480 c         1 MOL      0.099789
    137 O20        -5.0380   -4.4400    1.9030 o         1 MOL     -0.478273
    138 C47        -3.8270   -4.3790   -0.8880 c3        1 MOL     -0.358280
    139 C48        -3.4220   -3.7080   -2.1650 c3        1 MOL      0.117978
    140 C49        -3.8660   -2.2740   -1.9360 c3        1 MOL     -0.205936
    141 H60        -5.9260   -4.0240   -0.4040 h1        1 MOL      0.060988
    142 H61        -2.9770   -4.4570   -0.2210 hc        1 MOL      0.112485
    143 H62        -4.2740   -5.3350   -1.1690 hc        1 MOL      0.112485
    144 H63        -2.3350   -3.7730   -2.2470 hc        1 MOL     -0.009907
    145 H64        -3.8130   -4.1670   -3.0720 hc        1 MOL     -0.009907
    146 H65        -3.0180   -1.8210   -1.4130 h1        1 MOL      0.128824
    147 H66        -4.1150   -1.8170   -2.8920 h1        1 MOL      0.128824
    148 N13        -4.2850   -2.2830    1.7460 n         1 MOL      0.103090
    149 C50        -4.0330   -1.9180    3.1180 c3        1 MOL     -0.217474
    150 C51        -5.3260   -1.9810    3.8390 c         1 MOL      0.423124
    151 O21        -5.4750   -2.7090    4.8430 o         1 MOL     -0.566541
    152 C52        -3.3510   -0.5360    3.2850 c3        1 MOL      0.293262
    153 C53        -1.9700   -0.4440    2.7730 c3        1 MOL     -0.411310
    154 C54        -1.8180   -0.4980    1.2140 c         1 MOL      0.554689
    155 O22        -0.8080   -1.1120    0.8570 o         1 MOL     -0.613561
    156 O23        -2.7300   -0.0710    0.4800 o         1 MOL     -0.613561
    157 H67        -4.0840   -1.5850    1.0370 hn        1 MOL      0.280927
    158 H68        -3.3720   -2.7190    3.4620 h1        1 MOL      0.114879
    159 H69        -3.4020   -0.2720    4.3360 hc        1 MOL     -0.065653
    160 H70        -3.9680    0.1630    2.7280 hc        1 MOL     -0.065653
    161 H71        -1.3690   -1.1860    3.3030 hc        1 MOL      0.101966
    162 H72        -1.5700    0.5190    3.1090 hc        1 MOL      0.101966
    163 N14        -6.3040   -1.3350    3.3210 n         1 MOL     -0.103279
    164 C55        -7.6910   -1.4060    3.8680 c3        1 MOL     -0.271948
    165 H73        -7.9670   -0.4370    4.2850 h1        1 MOL      0.108864
    166 H74        -8.3850   -1.6680    3.0690 h1        1 MOL      0.108864
    167 H75        -7.7360   -2.1640    4.6500 h1        1 MOL      0.108864
    168 H76        -6.1130   -0.8740    2.4450 hn        1 MOL      0.156705
    169 Ca1         0.8600   -0.9940   -1.0190 Ca        1 MOL      1.750123
    170 O24         2.4290   -2.5790    0.2800 oh        1 MOL     -0.955346
    171 H77         3.3660   -2.4030    0.3830 ho        1 MOL      0.461882
    172 H78         2.3540   -3.5190    0.3110 ho        1 MOL      0.461882
    173 O25         1.5000    0.8630    0.7040 oh        1 MOL     -0.955346
    174 H79         2.3440    1.0910    1.0920 ho        1 MOL      0.461882
    175 H80         0.8850    1.4870    1.1010 ho        1 MOL      0.461882
    176 O26         0.1580   -3.5080   -1.6740 oh        1 MOL     -0.955346
    177 H81         0.2400   -3.9080   -2.5310 ho        1 MOL      0.461882
    178 H82        -0.4130   -4.0920   -1.1770 ho        1 MOL      0.461882
@<TRIPOS>BOND
     1    1    2 1   
     2    1    4 1   
     3    1    5 1   
     4    1    6 1   
     5    2    3 2   
     6    2    7 1   
     7    7    8 1   
     8    7   15 1   
     9    8    9 1   
    10    8   11 1   
    11    8   16 1   
    12    9   10 2   
    13    9   19 1   
    14   11   12 1   
    15   11   17 1   
    16   11   18 1   
    17   12   13 1   
    18   12   14 1   
    19   19   20 1   
    20   19   24 1   
    21   20   21 1   
    22   20   23 1   
    23   20   25 1   
    24   21   22 2   
    25   21   29 1   
    26   23   26 1   
    27   23   27 1   
    28   23   28 1   
    29   29   30 1   
    30   29   37 1   
    31   30   31 1   
    32   30   33 1   
    33   30   38 1   
    34   31   32 2   
    35   31   41 1   
    36   33   34 1   
    37   33   39 1   
    38   33   40 1   
    39   34   35 1   
    40   34   36 1   
    41   41   42 1   
    42   41   45 1   
    43   42   43 1   
    44   42   46 1   
    45   42   47 1   
    46   43   44 2   
    47   43   48 1   
    48   48   49 1   
    49   48   56 1   
    50   49   50 1   
    51   49   52 1   
    52   49   57 1   
    53   50   51 2   
    54   50   62 1   
    55   52   53 1   
    56   52   58 1   
    57   52   59 1   
    58   53   54 1   
    59   53   55 2   
    60   54   60 1   
    61   54   61 1   
    62   62   63 1   
    63   62   66 1   
    64   63   64 1   
    65   63   67 1   
    66   63   68 1   
    67   64   65 2   
    68   64   69 1   
    69   69   70 1   
    70   69   76 1   
    71   70   71 1   
    72   70   73 1   
    73   70   77 1   
    74   71   72 2   
    75   71   83 1   
    76   73   74 1   
    77   73   75 1   
    78   73   78 1   
    79   74   80 1   
    80   74   81 1   
    81   74   82 1   
    82   75   79 1   
    83   83   84 1   
    84   83   91 1   
    85   84   85 1   
    86   84   87 1   
    87   84   92 1   
    88   85   86 2   
    89   85  102 1   
    90   87   88 1   
    91   87   89 1   
    92   87   93 1   
    93   88   90 1   
    94   88   94 1   
    95   88   95 1   
    96   89   96 1   
    97   89   97 1   
    98   89   98 1   
    99   90   99 1   
   100   90  100 1   
   101   90  101 1   
   102  102  103 1   
   103  102  110 1   
   104  103  104 1   
   105  103  106 1   
   106  103  111 1   
   107  104  105 2   
   108  104  114 1   
   109  106  107 1   
   110  106  112 1   
   111  106  113 1   
   112  107  108 1   
   113  107  109 1   
   114  114  115 1   
   115  114  125 1   
   116  115  116 1   
   117  115  118 1   
   118  115  126 1   
   119  116  117 2   
   120  116  134 1   
   121  118  119 1   
   122  118  127 1   
   123  118  128 1   
   124  119  120 ar  
   125  119  121 ar  
   126  120  122 ar  
   127  120  129 1   
   128  121  123 ar  
   129  121  130 1   
   130  122  124 ar  
   131  122  131 1   
   132  123  124 ar  
   133  123  132 1   
   134  124  133 1   
   135  134  135 1   
   136  134  140 1   
   137  135  136 1   
   138  135  138 1   
   139  135  141 1   
   140  136  137 2   
   141  136  148 1   
   142  138  139 1   
   143  138  142 1   
   144  138  143 1   
   145  139  140 1   
   146  139  144 1   
   147  139  145 1   
   148  140  146 1   
   149  140  147 1   
   150  148  149 1   
   151  148  157 1   
   152  149  150 1   
   153  149  152 1   
   154  149  158 1   
   155  150  151 2   
   156  150  163 1   
   157  152  153 1   
   158  152  159 1   
   159  152  160 1   
   160  153  154 1   
   161  153  161 1   
   162  153  162 1   
   163  154  155 1   
   164  154  156 1   
   165  163  164 1   
   166  163  168 1   
   167  164  165 1   
   168  164  166 1   
   169  164  167 1   
   170  170  171 1   
   171  170  172 1   
   172  173  174 1   
   173  173  175 1   
   174  176  177 1   
   175  176  178 1   
@<TRIPOS>SUBSTRUCTURE
     1 MOL         1 TEMP              0 ****  ****    0 ROOT
