@<TRIPOS>MOLECULE
MOL
  182   178     1     0     0
SMALL
resp


@<TRIPOS>ATOM
      1 C1          1.7580   -5.0530    5.3680 c3        1 MOL     -0.425630
      2 C2          1.6170   -4.5240    3.9770 c         1 MOL      0.705248
      3 O1          0.7770   -4.8790    3.1840 o         1 MOL     -0.621297
      4 H1          1.9800   -6.1200    5.3300 hc        1 MOL      0.120402
      5 H2          2.5690   -4.5320    5.8750 hc        1 MOL      0.120402
      6 H3          0.8280   -4.8950    5.9130 hc        1 MOL      0.120402
      7 N1          2.6350   -3.7140    3.6100 n         1 MOL     -0.511259
      8 C3          2.8460   -3.1570    2.3200 c3        1 MOL      0.076518
      9 C4          3.4920   -4.2050    1.3560 c         1 MOL      0.366239
     10 O2          4.6970   -4.5200    1.5620 o         1 MOL     -0.513575
     11 C5          3.7830   -1.8770    2.4880 c3        1 MOL     -0.208873
     12 C6          3.8400   -1.0060    1.1880 c         1 MOL      0.786825
     13 O3          4.0320    0.2100    1.2410 o         1 MOL     -0.768430
     14 O4          3.5890   -1.5940    0.0840 o         1 MOL     -0.768430
     15 H4          3.3740   -3.5680    4.2850 hn        1 MOL      0.306898
     16 H5          1.8620   -2.8660    1.9430 h1        1 MOL     -0.004907
     17 H6          4.7970   -2.1540    2.7620 hc        1 MOL      0.076338
     18 H7          3.3330   -1.3200    3.3140 hc        1 MOL      0.076338
     19 N2          2.8340   -4.5240    0.2690 n         1 MOL     -0.110846
     20 C7          3.2820   -5.4480   -0.7430 c3        1 MOL     -0.149504
     21 C8          4.1330   -4.8850   -1.9020 c         1 MOL      0.486700
     22 O5          4.6860   -5.6050   -2.7750 o         1 MOL     -0.556347
     23 C9          2.1560   -6.3920   -1.2230 c3        1 MOL     -0.027582
     24 C10         1.5130   -7.2870   -0.1740 c3        1 MOL      0.263472
     25 C11         0.4930   -8.3010   -0.7000 c3        1 MOL     -0.081497
     26 C12        -0.6250   -7.7590   -1.5870 c3        1 MOL      0.156916
     27 N3         -1.6720   -8.7890   -1.7280 n4        1 MOL     -0.424933
     28 H8          1.8830   -4.1980    0.1740 hn        1 MOL      0.232882
     29 H9          4.0390   -6.0470   -0.2300 h1        1 MOL      0.130295
     30 H10         2.3820   -7.0440   -2.0640 hc        1 MOL      0.001995
     31 H11         1.3650   -5.6980   -1.4990 hc        1 MOL      0.001995
     32 H12         0.9870   -6.6400    0.5160 hc        1 MOL     -0.044319
     33 H13         2.2470   -7.8180    0.4350 hc        1 MOL     -0.044319
     34 H14         0.0860   -8.8110    0.1770 hc        1 MOL      0.026887
     35 H15         1.0440   -9.0490   -1.2540 hc        1 MOL      0.026887
     36 H16        -0.2120   -7.5000   -2.5630 hx        1 MOL      0.043934
     37 H17        -0.9610   -6.8630   -1.0740 hx        1 MOL      0.043934
     38 H18        -1.5230   -9.5070   -2.4290 hn        1 MOL      0.323344
     39 H19        -1.8220   -9.1730   -0.8140 hn        1 MOL      0.323344
     40 H20        -2.5630   -8.3740   -1.9680 hn        1 MOL      0.323344
     41 N4          4.2180   -3.5520   -2.1110 n         1 MOL     -0.280973
     42 C13         5.1050   -2.8140   -3.0280 c3        1 MOL      0.139838
     43 C14         6.3340   -2.2860   -2.2290 c         1 MOL      0.369391
     44 O6          7.4310   -2.4000   -2.7330 o         1 MOL     -0.529825
     45 C15         4.4360   -1.7380   -3.8540 c3        1 MOL     -0.302838
     46 C16         3.7120   -0.7120   -2.9800 c         1 MOL      0.784826
     47 O7          2.4680   -0.7920   -2.9690 o         1 MOL     -0.776204
     48 O8          4.1980    0.1460   -2.2630 o         1 MOL     -0.776204
     49 H21         3.7460   -2.9630   -1.4330 hn        1 MOL      0.150892
     50 H22         5.5180   -3.5430   -3.7280 h1        1 MOL      0.083132
     51 H23         3.7670   -2.2040   -4.5860 hc        1 MOL      0.092965
     52 H24         5.2130   -1.2290   -4.4390 hc        1 MOL      0.092965
     53 N5          6.1130   -1.6690   -1.0910 n         1 MOL     -0.124027
     54 C17         7.0940   -1.1510   -0.1350 c3        1 MOL     -0.058303
     55 C18         7.1500    0.3950    0.0350 c         1 MOL      0.546586
     56 O9          7.8940    0.8520    0.9150 o         1 MOL     -0.585915
     57 H25         5.1400   -1.6740   -0.8270 hn        1 MOL      0.161238
     58 H26         8.1070   -1.4730   -0.3370 h1        1 MOL      0.078221
     59 H27         6.9050   -1.5630    0.8570 h1        1 MOL      0.078221
     60 N6          6.4690    1.2300   -0.8200 n         1 MOL     -0.206614
     61 C19         6.5880    2.6660   -0.9440 c3        1 MOL      0.091836
     62 C20         5.2100    3.3200   -0.7690 c         1 MOL      0.556788
     63 O10         4.2090    2.6380   -0.5520 o         1 MOL     -0.442223
     64 C21         7.1100    2.9540   -2.3310 c3        1 MOL     -0.525331
     65 C22         8.4620    2.3700   -2.6910 c         1 MOL      0.588965
     66 N7          9.4670    2.4510   -1.8450 n         1 MOL     -0.662947
     67 O11         8.6180    1.6200   -3.6130 o         1 MOL     -0.506163
     68 H28         5.7770    0.7690   -1.3940 hn        1 MOL      0.223732
     69 H29         7.1830    3.1010   -0.1460 h1        1 MOL      0.020215
     70 H30         7.1850    4.0280   -2.5220 hc        1 MOL      0.144420
     71 H31         6.3940    2.4850   -3.0090 hc        1 MOL      0.144420
     72 H32         9.3650    3.2190   -1.1820 hn        1 MOL      0.334186
     73 H33        10.3670    2.0490   -2.0700 hn        1 MOL      0.334186
     74 N8          5.1790    4.6360   -0.8980 n         1 MOL     -0.369167
     75 C23         3.9930    5.4740   -0.8830 c3        1 MOL     -0.277598
     76 C24         3.0620    5.2950    0.3340 c         1 MOL      0.626925
     77 O12         3.5420    5.3060    1.4600 o         1 MOL     -0.515884
     78 H34         6.0460    5.1560   -0.9040 hn        1 MOL      0.311050
     79 H35         3.3950    5.2740   -1.7780 h1        1 MOL      0.126565
     80 H36         4.2950    6.5150   -0.7630 h1        1 MOL      0.126565
     81 N9          1.7530    5.1420    0.1320 n         1 MOL     -0.540105
     82 C25         0.7530    4.8190    1.1320 c3        1 MOL      0.158111
     83 C26         0.8510    3.3460    1.6000 c         1 MOL      0.651270
     84 O13         1.4140    2.5320    0.8920 o         1 MOL     -0.609088
     85 C27        -0.6590    4.8610    0.5790 c3        1 MOL     -0.096913
     86 C28        -0.9750    6.2470    0.2700 ca        1 MOL      0.161355
     87 C29        -1.0400    6.5490   -1.1240 ca        1 MOL     -0.260960
     88 C30        -1.2200    7.2780    1.1960 ca        1 MOL     -0.260960
     89 C31        -1.4790    7.7840   -1.6220 ca        1 MOL     -0.157501
     90 C32        -1.6120    8.5350    0.7070 ca        1 MOL     -0.157501
     91 C33        -1.8190    8.7520   -0.6070 ca        1 MOL      0.248585
     92 O14        -2.3090    9.9770   -1.0100 oh        1 MOL     -0.475172
     93 H37         1.3620    5.2140   -0.7980 hn        1 MOL      0.274954
     94 H38         0.8320    5.4300    2.0360 h1        1 MOL      0.031045
     95 H39        -1.3710    4.5940    1.3620 hc        1 MOL      0.045135
     96 H40        -0.8380    4.1580   -0.2420 hc        1 MOL      0.045135
     97 H41        -0.8500    5.8310   -1.9150 ha        1 MOL      0.144118
     98 H42        -1.1400    7.1580    2.2700 ha        1 MOL      0.144118
     99 H43        -1.6340    7.9740   -2.6760 ha        1 MOL      0.147458
    100 H44        -1.6170    9.3130    1.4520 ha        1 MOL      0.147458
    101 H45        -2.5170   10.5660   -0.2870 ho        1 MOL      0.358987
    102 N10         0.2170    3.0380    2.7510 n         1 MOL     -0.594020
    103 C34         0.2110    1.6720    3.3440 c3        1 MOL      0.052859
    104 C35        -0.1110    0.4430    2.3110 c         1 MOL      0.059679
    105 O15         0.8250   -0.1320    1.7140 o         1 MOL     -0.218652
    106 C36         1.3660    1.3970    4.2580 c3        1 MOL      0.357317
    107 C37         1.2750    0.1630    5.2120 c3        1 MOL     -0.169385
    108 C38         1.6730    2.6540    5.1500 c3        1 MOL     -0.524302
    109 C39        -0.1100    0.1600    5.8720 c3        1 MOL      0.080268
    110 H46        -0.2690    3.7370    3.2880 hn        1 MOL      0.324763
    111 H47        -0.6530    1.7280    4.0100 h1        1 MOL      0.085299
    112 H48         2.2980    1.2000    3.7320 hc        1 MOL      0.010569
    113 H49         2.0670    0.0590    5.9640 hc        1 MOL      0.038471
    114 H50         1.3690   -0.6590    4.5100 hc        1 MOL      0.038471
    115 H51         1.9250    3.5200    4.5370 hc        1 MOL      0.130709
    116 H52         0.9230    2.9020    5.9030 hc        1 MOL      0.130709
    117 H53         2.6420    2.3770    5.5720 hc        1 MOL      0.130709
    118 H54        -0.4130    1.0830    6.3770 hc        1 MOL     -0.026699
    119 H55        -0.9120   -0.0300    5.1540 hc        1 MOL     -0.026699
    120 H56        -0.1770   -0.6350    6.6080 hc        1 MOL     -0.026699
    121 N11        -1.3870    0.0240    2.2390 n         1 MOL     -0.201914
    122 C40        -1.8270   -1.3260    1.8520 c3        1 MOL     -0.025608
    123 C41        -3.2380   -1.5290    1.1790 c         1 MOL      0.729503
    124 O16        -3.6500   -2.6170    0.8540 o         1 MOL     -0.570759
    125 C42        -1.7450   -2.1800    3.1610 c3        1 MOL      0.143681
    126 O17        -2.7930   -1.8300    4.0120 oh        1 MOL     -0.609269
    127 H57        -2.0870    0.5590    2.7430 hn        1 MOL      0.273327
    128 H58        -1.1170   -1.7520    1.1450 h1        1 MOL     -0.005141
    129 H59        -0.8250   -2.0640    3.7250 h1        1 MOL      0.038797
    130 H60        -1.8310   -3.2430    2.9700 h1        1 MOL      0.038797
    131 H61        -2.5660   -2.3150    4.8140 ho        1 MOL      0.409770
    132 N12        -3.8370   -0.4170    0.7100 n         1 MOL     -0.677202
    133 C43        -5.1560   -0.3600    0.1110 c3        1 MOL      0.348696
    134 C44        -5.2000    0.6180   -1.1220 c         1 MOL      0.537601
    135 O18        -4.2210    1.3300   -1.3650 o         1 MOL     -0.597675
    136 C45        -6.1480    0.1660    1.2430 c3        1 MOL     -0.309711
    137 H62        -3.3540    0.4620    0.8260 hn        1 MOL      0.257333
    138 H63        -5.5460   -1.3170   -0.2180 h1        1 MOL      0.074626
    139 H64        -5.5930    0.9710    1.7480 hc        1 MOL      0.096085
    140 H65        -6.9890    0.5440    0.6630 hc        1 MOL      0.096085
    141 H66        -6.3500   -0.7010    1.8680 hc        1 MOL      0.096085
    142 N13        -6.2220    0.6580   -1.9420 n         1 MOL     -0.577757
    143 C46        -7.4360   -0.1730   -2.0650 c3        1 MOL      0.136212
    144 C47        -8.6030    0.7460   -2.6100 c         1 MOL      0.474446
    145 O19        -8.3900    1.5170   -3.5610 o         1 MOL     -0.557097
    146 C48        -7.0620   -1.3200   -3.0860 c3        1 MOL     -0.149546
    147 H67        -6.0710    1.3010   -2.7040 hn        1 MOL      0.329789
    148 H68        -7.6290   -0.6120   -1.0920 h1        1 MOL      0.066652
    149 H69        -6.3490   -1.9560   -2.5610 hc        1 MOL      0.055030
    150 H70        -7.9810   -1.8000   -3.4170 hc        1 MOL      0.055030
    151 H71        -6.5790   -1.0100   -4.0110 hc        1 MOL      0.055030
    152 N14        -9.8360    0.7240   -2.1420 n         1 MOL     -0.415369
    153 C49       -10.2220   -0.0740   -1.0100 c3        1 MOL      0.210571
    154 C50        -9.9030    0.5800    0.3410 c         1 MOL      0.194031
    155 O20        -9.6050   -0.1490    1.2870 o         1 MOL     -0.461268
    156 C51       -11.6520   -0.5440   -1.0620 c3        1 MOL     -0.094247
    157 C52       -11.8230   -1.7550   -2.0420 c3        1 MOL      0.097666
    158 C53       -11.2710   -3.0410   -1.5360 c         1 MOL      0.601411
    159 O21       -10.0200   -3.1530   -1.6290 o         1 MOL     -0.655612
    160 O22       -12.0750   -3.8040   -0.9980 o         1 MOL     -0.655612
    161 H72       -10.5210    1.3810   -2.4800 hn        1 MOL      0.309600
    162 H73        -9.5850   -0.9490   -0.9590 h1        1 MOL      0.032851
    163 H74       -12.2480    0.2620   -1.4960 hc        1 MOL      0.042701
    164 H75       -11.9520   -0.8470   -0.0600 hc        1 MOL      0.042701
    165 H76       -11.5400   -1.4200   -3.0320 hc        1 MOL     -0.067159
    166 H77       -12.9130   -1.8030   -2.1120 hc        1 MOL     -0.067159
    167 N15        -9.8460    1.8880    0.5130 n         1 MOL     -0.174414
    168 C54        -9.3900    2.6390    1.6700 c3        1 MOL     -0.163913
    169 H78        -9.8680    3.6200    1.6770 h1        1 MOL      0.088114
    170 H79        -9.6550    2.1010    2.5810 h1        1 MOL      0.088114
    171 H80        -8.3080    2.7620    1.6220 h1        1 MOL      0.088114
    172 H81       -10.2990    2.3630   -0.2600 hn        1 MOL      0.183305
    173 Ca1         2.2200    0.6500   -0.7390 Ca        1 MOL      1.770240
    174 O23         0.6700   -1.6420   -0.8040 oh        1 MOL     -0.849500
    175 H82         0.6610   -2.3390   -0.1540 ho        1 MOL      0.420390
    176 H83         0.0650   -1.9310   -1.4920 ho        1 MOL      0.420390
    177 O24         2.4180    2.4430   -2.7970 oh        1 MOL     -0.849500
    178 H84         1.5840    2.5790   -3.2450 ho        1 MOL      0.420390
    179 H85         3.0770    2.6560   -3.4570 ho        1 MOL      0.420390
    180 O25        -0.3710    1.0740   -1.3750 oh        1 MOL     -0.849500
    181 H86        -0.9710    0.3480   -1.4890 ho        1 MOL      0.420390
    182 H87        -0.8770    1.8560   -1.5960 ho        1 MOL      0.420390
@<TRIPOS>BOND
     1    1    2 1   
     2    1    4 1   
     3    1    5 1   
     4    1    6 1   
     5    2    3 2   
     6    2    7 1   
     7    7    8 1   
     8    7   15 1   
     9    8    9 1   
    10    8   11 1   
    11    8   16 1   
    12    9   10 2   
    13    9   19 1   
    14   11   12 1   
    15   11   17 1   
    16   11   18 1   
    17   12   13 1   
    18   12   14 1   
    19   19   20 1   
    20   19   28 1   
    21   20   21 1   
    22   20   23 1   
    23   20   29 1   
    24   21   22 2   
    25   21   41 1   
    26   23   24 1   
    27   23   30 1   
    28   23   31 1   
    29   24   25 1   
    30   24   32 1   
    31   24   33 1   
    32   25   26 1   
    33   25   34 1   
    34   25   35 1   
    35   26   27 1   
    36   26   36 1   
    37   26   37 1   
    38   27   38 1   
    39   27   39 1   
    40   27   40 1   
    41   41   42 1   
    42   41   49 1   
    43   42   43 1   
    44   42   45 1   
    45   42   50 1   
    46   43   44 2   
    47   43   53 1   
    48   45   46 1   
    49   45   51 1   
    50   45   52 1   
    51   46   47 1   
    52   46   48 1   
    53   53   54 1   
    54   53   57 1   
    55   54   55 1   
    56   54   58 1   
    57   54   59 1   
    58   55   56 2   
    59   55   60 1   
    60   60   61 1   
    61   60   68 1   
    62   61   62 1   
    63   61   64 1   
    64   61   69 1   
    65   62   63 2   
    66   62   74 1   
    67   64   65 1   
    68   64   70 1   
    69   64   71 1   
    70   65   66 1   
    71   65   67 2   
    72   66   72 1   
    73   66   73 1   
    74   74   75 1   
    75   74   78 1   
    76   75   76 1   
    77   75   79 1   
    78   75   80 1   
    79   76   77 2   
    80   76   81 1   
    81   81   82 1   
    82   81   93 1   
    83   82   83 1   
    84   82   85 1   
    85   82   94 1   
    86   83   84 2   
    87   83  102 1   
    88   85   86 1   
    89   85   95 1   
    90   85   96 1   
    91   86   87 ar  
    92   86   88 ar  
    93   87   89 ar  
    94   87   97 1   
    95   88   90 ar  
    96   88   98 1   
    97   89   91 ar  
    98   89   99 1   
    99   90   91 ar  
   100   90  100 1   
   101   91   92 1   
   102   92  101 1   
   103  102  103 1   
   104  102  110 1   
   105  103  104 1   
   106  103  106 1   
   107  103  111 1   
   108  104  105 2   
   109  104  121 1   
   110  106  107 1   
   111  106  108 1   
   112  106  112 1   
   113  107  109 1   
   114  107  113 1   
   115  107  114 1   
   116  108  115 1   
   117  108  116 1   
   118  108  117 1   
   119  109  118 1   
   120  109  119 1   
   121  109  120 1   
   122  121  122 1   
   123  121  127 1   
   124  122  123 1   
   125  122  125 1   
   126  122  128 1   
   127  123  124 2   
   128  123  132 1   
   129  125  126 1   
   130  125  129 1   
   131  125  130 1   
   132  126  131 1   
   133  132  133 1   
   134  132  137 1   
   135  133  134 1   
   136  133  136 1   
   137  133  138 1   
   138  134  135 2   
   139  134  142 1   
   140  136  139 1   
   141  136  140 1   
   142  136  141 1   
   143  142  143 1   
   144  142  147 1   
   145  143  144 1   
   146  143  146 1   
   147  143  148 1   
   148  144  145 2   
   149  144  152 1   
   150  146  149 1   
   151  146  150 1   
   152  146  151 1   
   153  152  153 1   
   154  152  161 1   
   155  153  154 1   
   156  153  156 1   
   157  153  162 1   
   158  154  155 2   
   159  154  167 1   
   160  156  157 1   
   161  156  163 1   
   162  156  164 1   
   163  157  158 1   
   164  157  165 1   
   165  157  166 1   
   166  158  159 1   
   167  158  160 1   
   168  167  168 1   
   169  167  172 1   
   170  168  169 1   
   171  168  170 1   
   172  168  171 1   
   173  174  175 1   
   174  174  176 1   
   175  177  178 1   
   176  177  179 1   
   177  180  181 1   
   178  180  182 1   
@<TRIPOS>SUBSTRUCTURE
     1 MOL         1 TEMP              0 ****  ****    0 ROOT
