@<TRIPOS>MOLECULE
MOL
  185   180     1     0     0
SMALL
resp


@<TRIPOS>ATOM
      1 C1         -4.5330    2.3910   -4.4730 c3        1 MOL     -0.361022
      2 C2         -5.4720    1.9190   -3.3350 c         1 MOL      0.587401
      3 O1         -4.9440    1.3100   -2.4510 o         1 MOL     -0.488771
      4 H1         -5.1310    2.7780   -5.2980 hc        1 MOL      0.088716
      5 H2         -3.8760    3.1770   -4.1000 hc        1 MOL      0.088716
      6 H3         -3.9330    1.5510   -4.8220 hc        1 MOL      0.088716
      7 N1         -6.7680    2.1550   -3.4730 n         1 MOL     -0.610164
      8 C3         -7.6040    2.2910   -2.2500 c3        1 MOL      0.062734
      9 C4         -7.6170    1.0990   -1.2010 c         1 MOL      0.350081
     10 O2         -7.4020    1.2780   -0.0170 o         1 MOL     -0.421279
     11 C5         -7.4520    3.7260   -1.6430 c3        1 MOL     -0.119523
     12 C6         -8.5160    3.9970   -0.5650 c         1 MOL      0.658776
     13 O3         -9.6450    3.4290   -0.7300 o         1 MOL     -0.660019
     14 O4         -8.3420    4.9180    0.2400 o         1 MOL     -0.660019
     15 H4         -7.0930    2.5780   -4.3320 hn        1 MOL      0.369492
     16 H5         -8.5900    2.3400   -2.7040 h1        1 MOL      0.038387
     17 H6         -7.5900    4.4490   -2.4460 hc        1 MOL      0.047816
     18 H7         -6.4490    3.8990   -1.2420 hc        1 MOL      0.047816
     19 N2         -7.7770   -0.1740   -1.7300 n         1 MOL     -0.334321
     20 C7         -7.8650   -1.4010   -0.9070 c3        1 MOL     -0.026550
     21 C8         -6.5030   -2.1480   -0.5840 c         1 MOL      0.632837
     22 O5         -6.3460   -3.3470   -0.5550 o         1 MOL     -0.569135
     23 C9         -8.9920   -2.2340   -1.4650 c3        1 MOL      0.075586
     24 C10       -10.3750   -1.6250   -1.5510 c3        1 MOL     -0.169443
     25 C11       -11.3650   -2.7580   -1.6400 c3        1 MOL      0.067073
     26 C12       -11.7380   -3.4850   -0.3400 c3        1 MOL     -0.080262
     27 N3        -12.5780   -4.6990   -0.6170 n4        1 MOL     -0.195592
     28 H8         -7.8810   -0.2840   -2.7300 hn        1 MOL      0.260224
     29 H9         -8.3270   -1.1040    0.0290 h1        1 MOL      0.088795
     30 H10        -8.8690   -3.1540   -0.8890 hc        1 MOL     -0.011983
     31 H11        -8.6570   -2.5190   -2.4600 hc        1 MOL     -0.011983
     32 H12       -10.5040   -1.0050   -2.4390 hc        1 MOL      0.094690
     33 H13       -10.5940   -0.9580   -0.7110 hc        1 MOL      0.094690
     34 H14       -10.9650   -3.5860   -2.2200 hc        1 MOL      0.001138
     35 H15       -12.3030   -2.4130   -2.0970 hc        1 MOL      0.001138
     36 H16       -12.2900   -2.8600    0.3660 hx        1 MOL      0.117633
     37 H17       -10.7670   -3.9080   -0.0800 hx        1 MOL      0.117633
     38 H18       -12.0730   -5.3130   -1.2380 hn        1 MOL      0.264992
     39 H19       -12.7120   -5.1250    0.2820 hn        1 MOL      0.264992
     40 H20       -13.4400   -4.5500   -1.1280 hn        1 MOL      0.264992
     41 N4         -5.4560   -1.3850   -0.2730 n         1 MOL     -0.500124
     42 C13        -4.1670   -1.9080    0.0450 c3        1 MOL      0.003471
     43 C14        -4.0550   -2.5180    1.4780 c         1 MOL      0.526330
     44 O6         -4.8850   -2.2100    2.3760 o         1 MOL     -0.518677
     45 C15        -3.1840   -0.7380   -0.1950 c3        1 MOL     -0.050561
     46 C16        -1.6460   -0.9510   -0.0460 c         1 MOL      0.800936
     47 O7         -1.0980   -1.0710    1.0760 o         1 MOL     -0.801521
     48 O8         -0.9500   -1.1260   -1.0890 o         1 MOL     -0.801521
     49 H21        -5.5950   -0.3840   -0.1910 hn        1 MOL      0.252912
     50 H22        -3.9690   -2.7020   -0.6770 h1        1 MOL      0.067896
     51 H23        -3.5290   -0.0450    0.5660 hc        1 MOL      0.095391
     52 H24        -3.3520   -0.3620   -1.2000 hc        1 MOL      0.095391
     53 N5         -3.1800   -3.4780    1.6750 n         1 MOL     -0.334283
     54 C17        -2.9240   -4.2330    2.9480 c3        1 MOL     -0.182983
     55 C18        -2.3590   -3.3780    4.1590 c         1 MOL      0.492521
     56 O9         -2.7950   -3.6180    5.3120 o         1 MOL     -0.526649
     57 H25        -2.6020   -3.6020    0.8560 hn        1 MOL      0.239001
     58 H26        -2.2650   -5.0380    2.6170 h1        1 MOL      0.118788
     59 H27        -3.9000   -4.6370    3.2180 h1        1 MOL      0.118788
     60 N6         -1.5070   -2.3850    3.8920 n         1 MOL     -0.207628
     61 C19        -0.9110   -1.4980    4.8100 c3        1 MOL      0.018168
     62 C20        -1.2960   -0.0250    4.6410 c         1 MOL      0.493329
     63 O10        -0.9870    0.7630    5.6000 o         1 MOL     -0.551652
     64 C21         0.6470   -1.6340    4.8890 c3        1 MOL     -0.245789
     65 C22         1.2890   -1.1470    3.5970 c         1 MOL      0.705089
     66 N7          1.6430    0.1000    3.4850 n         1 MOL     -0.863402
     67 O11         1.2350   -1.8550    2.6290 o         1 MOL     -0.675737
     68 H28        -1.2650   -2.3310    2.9090 hn        1 MOL      0.252801
     69 H29        -1.2750   -1.8200    5.7830 h1        1 MOL      0.109896
     70 H30         0.9960   -2.6510    5.0390 hc        1 MOL      0.089470
     71 H31         1.0330   -1.0340    5.7130 hc        1 MOL      0.089470
     72 H32         1.5420    0.7360    4.2630 hn        1 MOL      0.400347
     73 H33         2.2130    0.3070    2.6700 hn        1 MOL      0.400347
     74 N8         -1.9120    0.3700    3.5150 n         1 MOL     -0.266237
     75 C23        -2.2760    1.7590    3.2510 c3        1 MOL      0.011761
     76 C24        -1.3200    2.5940    2.4370 c         1 MOL      0.349922
     77 O12        -1.2400    3.8430    2.6000 o         1 MOL     -0.516556
     78 H34        -1.9240   -0.2870    2.7570 hn        1 MOL      0.066224
     79 H35        -2.2610    2.3320    4.1870 h1        1 MOL      0.092078
     80 H36        -3.2950    1.9540    2.8960 h1        1 MOL      0.092078
     81 N9         -0.5340    1.9840    1.5300 n         1 MOL     -0.084344
     82 C25         0.3320    2.7210    0.5900 c3        1 MOL     -0.019952
     83 C26         1.7210    2.0850    0.3630 c         1 MOL      0.308004
     84 O13         1.8590    0.8250    0.4410 o         1 MOL     -0.464415
     85 C27        -0.3590    3.0360   -0.7840 c3        1 MOL     -0.061553
     86 C28        -1.6800    3.7280   -0.6110 ca        1 MOL      0.129032
     87 C29        -2.8350    3.0040   -0.2570 ca        1 MOL     -0.219180
     88 C30        -1.8690    5.0640   -0.9630 ca        1 MOL     -0.219180
     89 C31        -4.0650    3.6700    0.0180 ca        1 MOL     -0.181419
     90 C32        -3.0880    5.7500   -0.7080 ca        1 MOL     -0.181419
     91 C33        -4.1470    4.9910   -0.2540 ca        1 MOL      0.365465
     92 O14        -5.3000    5.6720    0.0950 oh        1 MOL     -0.558284
     93 H37        -0.4890    0.9760    1.5570 hn        1 MOL      0.142246
     94 H38         0.5440    3.7260    0.9530 h1        1 MOL      0.065229
     95 H39        -0.6260    2.0910   -1.2700 hc        1 MOL      0.025108
     96 H40         0.3010    3.5820   -1.4420 hc        1 MOL      0.025108
     97 H41        -2.7990    1.9270   -0.2930 ha        1 MOL      0.105960
     98 H42        -1.0720    5.6360   -1.4110 ha        1 MOL      0.105960
     99 H43        -4.9540    3.0840    0.1720 ha        1 MOL      0.136599
    100 H44        -3.1210    6.8220   -0.8540 ha        1 MOL      0.136599
    101 H45        -5.9000    5.1710    0.6400 ho        1 MOL      0.404091
    102 N10         2.7060    2.8490   -0.1150 n         1 MOL     -0.251196
    103 C34         3.9020    2.3590   -0.7610 c3        1 MOL     -0.066904
    104 C35         4.9740    2.0060    0.2660 c         1 MOL      0.181427
    105 O15         5.5250    0.9390    0.2160 o         1 MOL     -0.367237
    106 C36         4.4060    3.2700   -1.9640 c3        1 MOL      0.195425
    107 C37         3.3840    3.2390   -3.1620 c3        1 MOL      0.045343
    108 C38         5.8080    2.8990   -2.4740 c3        1 MOL     -0.411292
    109 C39         3.7620    4.0450   -4.3990 c3        1 MOL     -0.082519
    110 H46         2.6340    3.8540   -0.0280 hn        1 MOL      0.271217
    111 H47         3.5950    1.4090   -1.1840 h1        1 MOL      0.118457
    112 H48         4.5270    4.2930   -1.6030 hc        1 MOL     -0.028763
    113 H49         2.5410    3.7030   -2.6680 hc        1 MOL     -0.010372
    114 H50         3.1320    2.1970   -3.3830 hc        1 MOL     -0.010372
    115 H51         6.2580    3.6900   -3.0840 hc        1 MOL      0.108968
    116 H52         6.4600    2.7700   -1.6210 hc        1 MOL      0.108968
    117 H53         5.7090    1.9240   -2.9560 hc        1 MOL      0.108968
    118 H54         4.5710    3.6280   -4.9980 hc        1 MOL      0.031175
    119 H55         2.9130    4.1130   -5.0750 hc        1 MOL      0.031175
    120 H56         3.9660    5.0760   -4.1240 hc        1 MOL      0.031175
    121 N11         5.2210    2.8460    1.2730 n         1 MOL     -0.146424
    122 C40         6.2140    2.6090    2.3020 c3        1 MOL     -0.049852
    123 C41         7.5920    2.1490    1.8610 c         1 MOL      0.407481
    124 O16         8.2030    1.3820    2.5910 o         1 MOL     -0.472441
    125 C42         6.2640    3.8170    3.2390 c3        1 MOL      0.271433
    126 O17         5.0210    3.9460    3.8450 oh        1 MOL     -0.573434
    127 H57         4.5910    3.6340    1.3490 hn        1 MOL      0.181550
    128 H58         5.8290    1.8090    2.9260 h1        1 MOL      0.109393
    129 H59         6.6090    4.6720    2.6610 h1        1 MOL     -0.003226
    130 H60         7.0230    3.6540    4.0000 h1        1 MOL     -0.003226
    131 H61         4.9730    4.8700    4.0970 ho        1 MOL      0.394943
    132 N12         8.0990    2.5020    0.6860 n         1 MOL     -0.413875
    133 C43         9.2540    1.9150   -0.0410 c3        1 MOL      0.291005
    134 C44         9.2630    0.3810   -0.3240 c         1 MOL      0.442562
    135 O18        10.3260   -0.2030   -0.6410 o         1 MOL     -0.531574
    136 C45        10.6010    2.6950    0.2140 c3        1 MOL     -0.294921
    137 H62         7.7530    3.2690    0.1140 hn        1 MOL      0.251180
    138 H63         9.0140    2.2150   -1.0530 h1        1 MOL      0.014519
    139 H64        11.4090    2.3150   -0.4150 hc        1 MOL      0.084908
    140 H65        10.5550    3.7640    0.0090 hc        1 MOL      0.084908
    141 H66        10.8800    2.5300    1.2580 hc        1 MOL      0.084908
    142 N13         8.1080   -0.2790   -0.2800 n         1 MOL     -0.449371
    143 C46         7.9900   -1.7810   -0.4500 c3        1 MOL      0.406979
    144 C47         6.8210   -2.0550   -1.4430 c         1 MOL      0.441884
    145 O19         5.9340   -1.2200   -1.8750 o         1 MOL     -0.507394
    146 C48         7.7710   -2.4420    0.9700 c3        1 MOL     -0.327785
    147 H67         7.2260    0.1110    0.0140 hn        1 MOL      0.176249
    148 H68         8.9170   -2.1450   -0.8770 h1        1 MOL     -0.013567
    149 H69         8.7410   -2.5390    1.4640 hc        1 MOL      0.100460
    150 H70         7.2190   -1.7650    1.6170 hc        1 MOL      0.100460
    151 H71         7.3480   -3.4400    0.8360 hc        1 MOL      0.100460
    152 N14         6.7490   -3.3460   -1.8500 n         1 MOL     -0.522240
    153 C49         5.7710   -4.0000   -2.8050 c3        1 MOL     -0.129627
    154 C50         5.6770   -3.3800   -4.2290 c         1 MOL      0.405942
    155 O20         4.7720   -3.7050   -5.0270 o         1 MOL     -0.490599
    156 C51         4.4090   -4.2570   -2.1440 c3        1 MOL      0.024840
    157 C52         4.4550   -4.7320   -0.6900 c3        1 MOL      0.047245
    158 C53         3.0540   -4.8370   -0.1700 c         1 MOL      0.556519
    159 O21         2.3630   -5.8030   -0.5700 o         1 MOL     -0.661888
    160 O22         2.6860   -3.9560    0.6810 o         1 MOL     -0.661888
    161 H72         7.4100   -4.0240   -1.5230 hn        1 MOL      0.325477
    162 H73         6.1980   -4.9880   -2.9830 h1        1 MOL      0.135990
    163 H74         3.6540   -4.8300   -2.6840 hc        1 MOL      0.035119
    164 H75         3.8860   -3.2990   -2.1110 hc        1 MOL      0.035119
    165 H76         5.0440   -4.0800   -0.0330 hc        1 MOL     -0.027553
    166 H77         4.9810   -5.6850   -0.6340 hc        1 MOL     -0.027553
    167 N15         6.7190   -2.5540   -4.5180 n         1 MOL     -0.221940
    168 C54         7.1530   -1.9310   -5.8170 c3        1 MOL     -0.077345
    169 H78         6.3370   -1.9880   -6.5380 h1        1 MOL      0.073140
    170 H79         7.4160   -0.8860   -5.6500 h1        1 MOL      0.073140
    171 H80         8.0190   -2.4670   -6.2070 h1        1 MOL      0.073140
    172 H81         7.2380   -2.3770   -3.6730 hn        1 MOL      0.189119
    173 Ca1         1.3300   -1.8010    0.0810 Ca        1 MOL      1.718838
    174 O23         0.7230   -3.1970   -2.2120 oh        1 MOL     -0.810338
    175 O24        -0.3790   -3.9420    0.7680 oh        1 MOL     -0.810338
    176 H82         1.1430   -3.1770   -3.0710 ho        1 MOL      0.406598
    177 H83        -0.8070   -4.5280    0.1500 ho        1 MOL      0.406598
    178 H84        -0.2120   -3.3260   -2.4060 ho        1 MOL      0.406598
    179 H85         0.1960   -4.5130    1.2780 ho        1 MOL      0.406598
    180 O25         3.1590   -0.8750   -1.6590 oh        1 MOL     -0.810338
    181 H86         4.0890   -0.8840   -1.8910 ho        1 MOL      0.406598
    182 H87         2.7320   -0.4420   -2.3880 ho        1 MOL      0.406598
    183 O26         3.9930   -1.3770    1.1610 oh        1 MOL     -0.810338
    184 H88         4.5450   -0.7190    0.7480 ho        1 MOL      0.406598
    185 H89         4.2930   -1.4130    2.0680 ho        1 MOL      0.406598
@<TRIPOS>BOND
     1    1    2 1   
     2    1    4 1   
     3    1    5 1   
     4    1    6 1   
     5    2    3 2   
     6    2    7 1   
     7    7    8 1   
     8    7   15 1   
     9    8    9 1   
    10    8   11 1   
    11    8   16 1   
    12    9   10 2   
    13    9   19 1   
    14   11   12 1   
    15   11   17 1   
    16   11   18 1   
    17   12   13 1   
    18   12   14 1   
    19   19   20 1   
    20   19   28 1   
    21   20   21 1   
    22   20   23 1   
    23   20   29 1   
    24   21   22 2   
    25   21   41 1   
    26   23   24 1   
    27   23   30 1   
    28   23   31 1   
    29   24   25 1   
    30   24   32 1   
    31   24   33 1   
    32   25   26 1   
    33   25   34 1   
    34   25   35 1   
    35   26   27 1   
    36   26   36 1   
    37   26   37 1   
    38   27   38 1   
    39   27   39 1   
    40   27   40 1   
    41   41   42 1   
    42   41   49 1   
    43   42   43 1   
    44   42   45 1   
    45   42   50 1   
    46   43   44 2   
    47   43   53 1   
    48   45   46 1   
    49   45   51 1   
    50   45   52 1   
    51   46   47 1   
    52   46   48 1   
    53   53   54 1   
    54   53   57 1   
    55   54   55 1   
    56   54   58 1   
    57   54   59 1   
    58   55   56 2   
    59   55   60 1   
    60   60   61 1   
    61   60   68 1   
    62   61   62 1   
    63   61   64 1   
    64   61   69 1   
    65   62   63 2   
    66   62   74 1   
    67   64   65 1   
    68   64   70 1   
    69   64   71 1   
    70   65   66 1   
    71   65   67 2   
    72   66   72 1   
    73   66   73 1   
    74   74   75 1   
    75   74   78 1   
    76   75   76 1   
    77   75   79 1   
    78   75   80 1   
    79   76   77 2   
    80   76   81 1   
    81   81   82 1   
    82   81   93 1   
    83   82   83 1   
    84   82   85 1   
    85   82   94 1   
    86   83   84 2   
    87   83  102 1   
    88   85   86 1   
    89   85   95 1   
    90   85   96 1   
    91   86   87 ar  
    92   86   88 ar  
    93   87   89 ar  
    94   87   97 1   
    95   88   90 ar  
    96   88   98 1   
    97   89   91 ar  
    98   89   99 1   
    99   90   91 ar  
   100   90  100 1   
   101   91   92 1   
   102   92  101 1   
   103  102  103 1   
   104  102  110 1   
   105  103  104 1   
   106  103  106 1   
   107  103  111 1   
   108  104  105 2   
   109  104  121 1   
   110  106  107 1   
   111  106  108 1   
   112  106  112 1   
   113  107  109 1   
   114  107  113 1   
   115  107  114 1   
   116  108  115 1   
   117  108  116 1   
   118  108  117 1   
   119  109  118 1   
   120  109  119 1   
   121  109  120 1   
   122  121  122 1   
   123  121  127 1   
   124  122  123 1   
   125  122  125 1   
   126  122  128 1   
   127  123  124 2   
   128  123  132 1   
   129  125  126 1   
   130  125  129 1   
   131  125  130 1   
   132  126  131 1   
   133  132  133 1   
   134  132  137 1   
   135  133  134 1   
   136  133  136 1   
   137  133  138 1   
   138  134  135 2   
   139  134  142 1   
   140  136  139 1   
   141  136  140 1   
   142  136  141 1   
   143  142  143 1   
   144  142  147 1   
   145  143  144 1   
   146  143  146 1   
   147  143  148 1   
   148  144  145 2   
   149  144  152 1   
   150  146  149 1   
   151  146  150 1   
   152  146  151 1   
   153  152  153 1   
   154  152  161 1   
   155  153  154 1   
   156  153  156 1   
   157  153  162 1   
   158  154  155 2   
   159  154  167 1   
   160  156  157 1   
   161  156  163 1   
   162  156  164 1   
   163  157  158 1   
   164  157  165 1   
   165  157  166 1   
   166  158  159 1   
   167  158  160 1   
   168  167  168 1   
   169  167  172 1   
   170  168  169 1   
   171  168  170 1   
   172  168  171 1   
   173  174  176 1   
   174  174  178 1   
   175  175  177 1   
   176  175  179 1   
   177  180  181 1   
   178  180  182 1   
   179  183  184 1   
   180  183  185 1   
@<TRIPOS>SUBSTRUCTURE
     1 MOL         1 TEMP              0 ****  ****    0 ROOT
