@<TRIPOS>MOLECULE
MOL
  185   180     1     0     0
SMALL
resp


@<TRIPOS>ATOM
      1 C1          5.3960    0.7180   -5.7900 c3        1 MOL     -0.352319
      2 C2          4.8620    0.1790   -4.5000 c         1 MOL      0.570533
      3 O1          3.6210    0.1440   -4.3620 o         1 MOL     -0.568600
      4 H1          4.6950    1.4470   -6.1960 hc        1 MOL      0.087545
      5 H2          6.3580    1.1990   -5.6120 hc        1 MOL      0.087545
      6 H3          5.5230   -0.0990   -6.5000 hc        1 MOL      0.087545
      7 N1          5.7770    0.0050   -3.5640 n         1 MOL     -0.326591
      8 C3          5.4430   -0.2550   -2.1430 c3        1 MOL     -0.022778
      9 C4          4.8050    0.9610   -1.4930 c         1 MOL      0.391984
     10 O2          3.6670    0.8050   -1.0700 o         1 MOL     -0.480936
     11 C5          6.6180   -0.8300   -1.3090 c3        1 MOL     -0.121688
     12 C6          7.9390   -0.0950   -1.4310 c         1 MOL      0.612229
     13 O3          7.9640    0.9220   -2.1750 o         1 MOL     -0.639070
     14 O4          8.8680   -0.4260   -0.6800 o         1 MOL     -0.639070
     15 H4          6.7630    0.0210   -3.7650 hn        1 MOL      0.238303
     16 H5          4.6390   -0.9950   -2.0940 h1        1 MOL      0.056131
     17 H6          6.7930   -1.8110   -1.7660 hc        1 MOL      0.059637
     18 H7          6.3710   -1.0190   -0.2670 hc        1 MOL      0.059637
     19 N2          5.3940    2.2110   -1.6400 n         1 MOL     -0.103147
     20 C7          4.8750    3.4780   -1.2710 c3        1 MOL     -0.152465
     21 C8          4.9520    3.6450    0.3000 c         1 MOL      0.581556
     22 O5          6.0150    3.9490    0.8460 o         1 MOL     -0.541091
     23 C9          5.5580    4.5770   -2.1010 c3        1 MOL      0.087261
     24 C10         4.6410    5.7160   -2.4430 c3        1 MOL     -0.242804
     25 C11         5.2140    6.8280   -3.2600 c3        1 MOL     -0.061477
     26 C12         4.4120    8.1120   -3.2190 c3        1 MOL      0.227237
     27 N3          5.1660    9.2480   -3.8270 n4        1 MOL     -0.441810
     28 H8          6.1550    2.2380   -2.3120 hn        1 MOL      0.141588
     29 H9          3.8300    3.3710   -1.5820 h1        1 MOL      0.084717
     30 H10         5.8700    4.2210   -3.0890 hc        1 MOL      0.035387
     31 H11         6.5150    4.7590   -1.6090 hc        1 MOL      0.035387
     32 H12         4.2350    6.0540   -1.4950 hc        1 MOL      0.090097
     33 H13         3.8600    5.2680   -3.0540 hc        1 MOL      0.090097
     34 H14         5.3190    6.5190   -4.3050 hc        1 MOL      0.047896
     35 H15         6.1680    7.1060   -2.8300 hc        1 MOL      0.047896
     36 H16         4.1510    8.4990   -2.2360 hx        1 MOL      0.042608
     37 H17         3.4330    7.9500   -3.6520 hx        1 MOL      0.042608
     38 H18         5.5560    8.9740   -4.7200 hn        1 MOL      0.317089
     39 H19         4.5540   10.0320   -4.0250 hn        1 MOL      0.317089
     40 H20         5.8940    9.5940   -3.2180 hn        1 MOL      0.317089
     41 N4          3.8640    3.3470    1.0170 n         1 MOL     -0.327141
     42 C13         3.7860    3.2720    2.4630 c3        1 MOL     -0.114720
     43 C14         4.3440    1.9230    2.9950 c         1 MOL      0.742233
     44 O6          3.9850    0.8430    2.5680 o         1 MOL     -0.544848
     45 C15         2.2980    3.4510    3.0170 c3        1 MOL     -0.180183
     46 C16         1.2960    2.5550    2.3260 c         1 MOL      0.598224
     47 O7          0.8620    1.4890    2.9100 o         1 MOL     -0.690965
     48 O8          0.8980    2.9160    1.2000 o         1 MOL     -0.690965
     49 H21         3.0390    3.0720    0.5050 hn        1 MOL      0.202230
     50 H22         4.3390    4.0880    2.9190 h1        1 MOL      0.079431
     51 H23         2.1150    4.5220    2.9190 hc        1 MOL      0.073699
     52 H24         2.2960    3.3410    4.1060 hc        1 MOL      0.073699
     53 N5          5.1530    2.0030    4.0500 n         1 MOL     -0.559189
     54 C17         5.7690    0.7740    4.6580 c3        1 MOL      0.165122
     55 C18         6.8250    0.1050    3.7640 c         1 MOL      0.421424
     56 O9          7.7550    0.7200    3.3000 o         1 MOL     -0.472742
     57 H25         5.4050    2.9230    4.3800 hn        1 MOL      0.316004
     58 H26         4.9780    0.1590    5.0810 h1        1 MOL      0.006015
     59 H27         6.3420    1.0070    5.5610 h1        1 MOL      0.006015
     60 N6          6.7790   -1.1550    3.3510 n         1 MOL     -0.342749
     61 C19         5.6740   -2.1000    3.3890 c3        1 MOL      0.128229
     62 C20         5.9250   -2.9620    2.1180 c         1 MOL      0.492630
     63 O10         7.0670   -3.4350    1.9620 o         1 MOL     -0.549616
     64 C21         5.6480   -2.9010    4.7260 c3        1 MOL     -0.419908
     65 C22         4.5260   -3.9870    4.8550 c         1 MOL      0.729537
     66 N7          3.8800   -4.0100    5.9500 n         1 MOL     -0.751409
     67 O11         4.3290   -4.9250    4.0270 o         1 MOL     -0.566326
     68 H28         7.6080   -1.5160    2.8900 hn        1 MOL      0.290039
     69 H29         4.7080   -1.6090    3.2850 h1        1 MOL      0.050593
     70 H30         5.4820   -2.2700    5.5990 hc        1 MOL      0.119112
     71 H31         6.5700   -3.4540    4.8390 hc        1 MOL      0.119112
     72 H32         4.0470   -3.2430    6.5860 hn        1 MOL      0.350481
     73 H33         3.0490   -4.5850    6.0660 hn        1 MOL      0.350481
     74 N8          5.0880   -3.2970    1.1970 n         1 MOL     -0.358589
     75 C23         3.7440   -2.7910    1.0680 c3        1 MOL      0.050218
     76 C24         2.8600   -3.4100   -0.0310 c         1 MOL      0.677082
     77 O12         3.2530   -4.1820   -0.8750 o         1 MOL     -0.557375
     78 H34         5.4170   -3.7980    0.3800 hn        1 MOL      0.271534
     79 H35         3.7930   -1.7230    0.8490 h1        1 MOL     -0.010016
     80 H36         3.2130   -3.0820    1.9660 h1        1 MOL     -0.010016
     81 N9          1.5980   -3.0330   -0.0400 n         1 MOL     -0.611749
     82 C25         0.6030   -3.6350   -0.9240 c3        1 MOL      0.262226
     83 C26        -0.6620   -2.6760   -1.0080 c         1 MOL      0.413591
     84 O13        -0.6910   -1.6260   -0.3950 o         1 MOL     -0.569487
     85 C27         0.2060   -5.0960   -0.4770 c3        1 MOL     -0.153948
     86 C28        -0.4580   -5.8720   -1.6580 ca        1 MOL     -0.072517
     87 C29        -1.7630   -6.2760   -1.5580 ca        1 MOL     -0.036517
     88 C30         0.2380   -6.0580   -2.9260 ca        1 MOL     -0.036517
     89 C31        -2.3980   -6.8280   -2.6380 ca        1 MOL     -0.377515
     90 C32        -0.4310   -6.6480   -4.0300 ca        1 MOL     -0.377515
     91 C33        -1.7820   -7.0410   -3.8910 ca        1 MOL      0.498893
     92 O14        -2.3860   -7.5670   -4.9400 oh        1 MOL     -0.553945
     93 H37         1.3960   -2.2680    0.5930 hn        1 MOL      0.314494
     94 H38         0.9780   -3.5770   -1.9450 h1        1 MOL      0.038912
     95 H39        -0.4060   -5.0670    0.4240 hc        1 MOL      0.078182
     96 H40         1.1270   -5.5650   -0.1530 hc        1 MOL      0.078182
     97 H41        -2.2770   -6.0180   -0.6360 ha        1 MOL      0.117705
     98 H42         1.2530   -5.7130   -2.9920 ha        1 MOL      0.117705
     99 H43        -3.4020   -7.2130   -2.4570 ha        1 MOL      0.159140
    100 H44         0.1240   -6.9000   -4.9250 ha        1 MOL      0.159140
    101 H45        -1.8990   -7.6530   -5.7540 ho        1 MOL      0.410708
    102 N10        -1.6160   -3.1000   -1.8400 n         1 MOL     -0.154197
    103 C34        -2.8410   -2.3770   -1.9650 c3        1 MOL     -0.005840
    104 C35        -3.9440   -2.8490   -0.9440 c         1 MOL      0.543188
    105 O15        -4.0830   -4.0010   -0.6420 o         1 MOL     -0.530017
    106 C36        -3.3990   -2.4290   -3.4300 c3        1 MOL      0.175369
    107 C37        -2.5280   -1.6960   -4.4540 c3        1 MOL     -0.200892
    108 C38        -3.5670   -3.8730   -3.9970 c3        1 MOL     -0.222464
    109 C39        -2.5540   -0.1620   -4.1790 c3        1 MOL     -0.053133
    110 H46        -1.3820   -3.9160   -2.3760 hn        1 MOL      0.123368
    111 H47        -2.6260   -1.3340   -1.7550 h1        1 MOL      0.003928
    112 H48        -4.4020   -2.0040   -3.3600 hc        1 MOL      0.005997
    113 H49        -3.0560   -1.7340   -5.4070 hc        1 MOL      0.057673
    114 H50        -1.5210   -2.1110   -4.4300 hc        1 MOL      0.057673
    115 H51        -3.9340   -4.5990   -3.2620 hc        1 MOL      0.056632
    116 H52        -4.2660   -3.8480   -4.8270 hc        1 MOL      0.056632
    117 H53        -2.7310   -4.3550   -4.5070 hc        1 MOL      0.056632
    118 H54        -1.9320    0.2890   -4.9520 hc        1 MOL      0.031129
    119 H55        -3.5810    0.1620   -4.3430 hc        1 MOL      0.031129
    120 H56        -2.2300    0.0070   -3.1560 hc        1 MOL      0.031129
    121 N11        -4.6250   -1.8770   -0.3150 n         1 MOL     -0.432731
    122 C40        -5.6140   -2.0060    0.7750 c3        1 MOL      0.105392
    123 C41        -5.6810   -0.8780    1.7860 c         1 MOL      0.318993
    124 O16        -5.2270    0.2490    1.5150 o         1 MOL     -0.363628
    125 C42        -6.9650   -2.0960    0.1570 c3        1 MOL     -0.177459
    126 O17        -7.2970   -0.8050   -0.3740 oh        1 MOL     -0.536326
    127 H57        -4.4940   -0.9540   -0.6960 hn        1 MOL      0.309790
    128 H58        -5.3770   -2.9290    1.3200 h1        1 MOL      0.080141
    129 H59        -7.6980   -2.2960    0.9340 h1        1 MOL      0.125649
    130 H60        -6.9670   -2.8890   -0.5890 h1        1 MOL      0.125649
    131 H61        -8.0300   -0.8180   -0.9910 ho        1 MOL      0.413103
    132 N12        -6.2360   -1.0800    2.9960 n         1 MOL     -0.378186
    133 C43        -6.6090   -0.0090    3.9080 c3        1 MOL      0.161895
    134 C44        -7.6540    0.9440    3.3810 c         1 MOL      0.315089
    135 O18        -7.7710    2.0300    3.8930 o         1 MOL     -0.415888
    136 C45        -5.3310    0.6110    4.4850 c3        1 MOL     -0.265060
    137 H62        -6.7320   -1.9550    3.1130 hn        1 MOL      0.255628
    138 H63        -6.9380   -0.6530    4.7280 h1        1 MOL      0.075633
    139 H64        -4.5840   -0.1820    4.4870 hc        1 MOL      0.076869
    140 H65        -5.0410    1.3730    3.7690 hc        1 MOL      0.076869
    141 H66        -5.6030    1.0330    5.4530 hc        1 MOL      0.076869
    142 N13        -8.4150    0.5610    2.3230 n         1 MOL     -0.384746
    143 C46        -9.3700    1.4040    1.6280 c3        1 MOL      0.123195
    144 C47        -8.6990    2.6170    0.9530 c         1 MOL      0.479969
    145 O19        -9.4010    3.6280    0.9240 o         1 MOL     -0.518038
    146 C48       -10.5290    1.7220    2.6320 c3        1 MOL     -0.226178
    147 H67        -8.3300   -0.4250    2.1220 hn        1 MOL      0.246650
    148 H68        -9.7680    0.8430    0.7780 h1        1 MOL      0.028958
    149 H69       -10.3120    2.4600    3.3980 hc        1 MOL      0.077360
    150 H70       -11.4350    2.0890    2.1480 hc        1 MOL      0.077360
    151 H71       -10.8800    0.8140    3.1350 hc        1 MOL      0.077360
    152 N14        -7.4890    2.5150    0.3500 n         1 MOL     -0.357388
    153 C49        -6.7230    3.7000   -0.0920 c3        1 MOL      0.050160
    154 C50        -7.1150    4.1130   -1.4790 c         1 MOL      0.462203
    155 O20        -7.0340    5.3450   -1.6700 o         1 MOL     -0.540071
    156 C51        -5.2140    3.4030    0.1410 c3        1 MOL      0.008250
    157 C52        -4.6380    2.4170   -0.8470 c3        1 MOL      0.148677
    158 C53        -3.2090    1.9680   -0.5160 c         1 MOL      0.733852
    159 O21        -2.4140    2.8770   -0.0840 o         1 MOL     -0.768790
    160 O22        -2.8170    0.8280   -0.5080 o         1 MOL     -0.768790
    161 H72        -6.8690    1.7270    0.4120 hn        1 MOL      0.249844
    162 H73        -6.9790    4.5350    0.5640 h1        1 MOL      0.093622
    163 H74        -5.0640    2.9440    1.1220 hc        1 MOL      0.009100
    164 H75        -4.7230    4.3720    0.0870 hc        1 MOL      0.009100
    165 H76        -4.5420    2.7260   -1.8920 hc        1 MOL     -0.095069
    166 H77        -5.2000    1.4890   -0.8440 hc        1 MOL     -0.095069
    167 N15        -7.6140    3.2860   -2.3690 n         1 MOL     -0.211440
    168 C54        -8.1060    3.7400   -3.6990 c3        1 MOL     -0.242590
    169 H78        -8.6900    4.6520   -3.5780 h1        1 MOL      0.111900
    170 H79        -7.2570    3.9380   -4.3530 h1        1 MOL      0.111900
    171 H80        -8.7320    2.9640   -4.1400 h1        1 MOL      0.111900
    172 H81        -7.8920    2.3660   -2.0760 hn        1 MOL      0.179884
    173 Ca1        -0.7000    0.9270    0.8700 Ca        1 MOL      1.758186
    174 O23        -2.7650    1.3230    2.5910 oh        1 MOL     -0.847233
    175 H82        -2.8750    1.8750    3.3760 ho        1 MOL      0.418380
    176 H83        -3.6220    0.8970    2.4930 ho        1 MOL      0.418380
    177 O24         0.1230    0.5480   -1.7040 oh        1 MOL     -0.847233
    178 H84         0.8920    0.4810   -2.2620 ho        1 MOL      0.418380
    179 H85        -0.2740   -0.3240   -1.7380 ho        1 MOL      0.418380
    180 O25         1.8570   -0.0450    0.9400 oh        1 MOL     -0.847233
    181 H86         2.5520    0.0900    0.2990 ho        1 MOL      0.418380
    182 H87         2.2210    0.2870    1.7580 ho        1 MOL      0.418380
    183 O26        -0.8390   -1.4790    2.4420 oh        1 MOL     -0.847233
    184 H88        -1.4030   -2.0960    1.9910 ho        1 MOL      0.418380
    185 H89        -0.9340   -1.6960    3.3770 ho        1 MOL      0.418380
@<TRIPOS>BOND
     1    1    2 1   
     2    1    4 1   
     3    1    5 1   
     4    1    6 1   
     5    2    3 2   
     6    2    7 1   
     7    7    8 1   
     8    7   15 1   
     9    8    9 1   
    10    8   11 1   
    11    8   16 1   
    12    9   10 2   
    13    9   19 1   
    14   11   12 1   
    15   11   17 1   
    16   11   18 1   
    17   12   13 1   
    18   12   14 1   
    19   19   20 1   
    20   19   28 1   
    21   20   21 1   
    22   20   23 1   
    23   20   29 1   
    24   21   22 2   
    25   21   41 1   
    26   23   24 1   
    27   23   30 1   
    28   23   31 1   
    29   24   25 1   
    30   24   32 1   
    31   24   33 1   
    32   25   26 1   
    33   25   34 1   
    34   25   35 1   
    35   26   27 1   
    36   26   36 1   
    37   26   37 1   
    38   27   38 1   
    39   27   39 1   
    40   27   40 1   
    41   41   42 1   
    42   41   49 1   
    43   42   43 1   
    44   42   45 1   
    45   42   50 1   
    46   43   44 2   
    47   43   53 1   
    48   45   46 1   
    49   45   51 1   
    50   45   52 1   
    51   46   47 1   
    52   46   48 1   
    53   53   54 1   
    54   53   57 1   
    55   54   55 1   
    56   54   58 1   
    57   54   59 1   
    58   55   56 2   
    59   55   60 1   
    60   60   61 1   
    61   60   68 1   
    62   61   62 1   
    63   61   64 1   
    64   61   69 1   
    65   62   63 2   
    66   62   74 1   
    67   64   65 1   
    68   64   70 1   
    69   64   71 1   
    70   65   66 1   
    71   65   67 2   
    72   66   72 1   
    73   66   73 1   
    74   74   75 1   
    75   74   78 1   
    76   75   76 1   
    77   75   79 1   
    78   75   80 1   
    79   76   77 2   
    80   76   81 1   
    81   81   82 1   
    82   81   93 1   
    83   82   83 1   
    84   82   85 1   
    85   82   94 1   
    86   83   84 2   
    87   83  102 1   
    88   85   86 1   
    89   85   95 1   
    90   85   96 1   
    91   86   87 ar  
    92   86   88 ar  
    93   87   89 ar  
    94   87   97 1   
    95   88   90 ar  
    96   88   98 1   
    97   89   91 ar  
    98   89   99 1   
    99   90   91 ar  
   100   90  100 1   
   101   91   92 1   
   102   92  101 1   
   103  102  103 1   
   104  102  110 1   
   105  103  104 1   
   106  103  106 1   
   107  103  111 1   
   108  104  105 2   
   109  104  121 1   
   110  106  107 1   
   111  106  108 1   
   112  106  112 1   
   113  107  109 1   
   114  107  113 1   
   115  107  114 1   
   116  108  115 1   
   117  108  116 1   
   118  108  117 1   
   119  109  118 1   
   120  109  119 1   
   121  109  120 1   
   122  121  122 1   
   123  121  127 1   
   124  122  123 1   
   125  122  125 1   
   126  122  128 1   
   127  123  124 2   
   128  123  132 1   
   129  125  126 1   
   130  125  129 1   
   131  125  130 1   
   132  126  131 1   
   133  132  133 1   
   134  132  137 1   
   135  133  134 1   
   136  133  136 1   
   137  133  138 1   
   138  134  135 2   
   139  134  142 1   
   140  136  139 1   
   141  136  140 1   
   142  136  141 1   
   143  142  143 1   
   144  142  147 1   
   145  143  144 1   
   146  143  146 1   
   147  143  148 1   
   148  144  145 2   
   149  144  152 1   
   150  146  149 1   
   151  146  150 1   
   152  146  151 1   
   153  152  153 1   
   154  152  161 1   
   155  153  154 1   
   156  153  156 1   
   157  153  162 1   
   158  154  155 2   
   159  154  167 1   
   160  156  157 1   
   161  156  163 1   
   162  156  164 1   
   163  157  158 1   
   164  157  165 1   
   165  157  166 1   
   166  158  159 1   
   167  158  160 1   
   168  167  168 1   
   169  167  172 1   
   170  168  169 1   
   171  168  170 1   
   172  168  171 1   
   173  174  175 1   
   174  174  176 1   
   175  177  178 1   
   176  177  179 1   
   177  180  181 1   
   178  180  182 1   
   179  183  184 1   
   180  183  185 1   
@<TRIPOS>SUBSTRUCTURE
     1 MOL         1 TEMP              0 ****  ****    0 ROOT
