@<TRIPOS>MOLECULE
MOL
  182   178     1     0     0
SMALL
resp


@<TRIPOS>ATOM
      1 C1          1.2910   -5.0480    5.2430 c3        1 MOL     -0.455990
      2 C2          1.3960   -4.4970    3.8200 c         1 MOL      0.797470
      3 O1          0.5790   -4.8190    3.0200 o         1 MOL     -0.616630
      4 H1          1.5840   -6.0990    5.2480 hc        1 MOL      0.131200
      5 H2          1.9520   -4.4850    5.9020 hc        1 MOL      0.131200
      6 H3          0.2630   -4.9570    5.5940 hc        1 MOL      0.131200
      7 N1          2.4880   -3.7800    3.4850 n         1 MOL     -0.615724
      8 C3          2.7630   -3.1770    2.2560 c3        1 MOL      0.030813
      9 C4          3.3790   -4.1480    1.2220 c         1 MOL      0.620647
     10 O2          4.3860   -4.7330    1.5160 o         1 MOL     -0.557775
     11 C5          3.6070   -1.9360    2.5300 c3        1 MOL     -0.131109
     12 C6          3.6850   -1.0370    1.2770 c         1 MOL      0.752465
     13 O3          3.8170    0.1570    1.3490 o         1 MOL     -0.761017
     14 O4          3.5940   -1.5670    0.1410 o         1 MOL     -0.761017
     15 H4          3.2610   -3.7330    4.1340 hn        1 MOL      0.334120
     16 H5          1.8370   -2.8060    1.8140 h1        1 MOL     -0.056906
     17 H6          4.5910   -2.2130    2.9020 hc        1 MOL      0.060184
     18 H7          3.2390   -1.2640    3.3020 hc        1 MOL      0.060184
     19 N2          2.7860   -4.2520    0.0350 n         1 MOL     -0.251045
     20 C7          3.0490   -5.2990   -0.9490 c3        1 MOL     -0.254336
     21 C8          4.1510   -4.8460   -1.9960 c         1 MOL      0.561493
     22 O5          4.7570   -5.6920   -2.6540 o         1 MOL     -0.538657
     23 C9          1.7560   -5.7060   -1.6960 c3        1 MOL      0.102147
     24 C10         0.6540   -6.4150   -0.9290 c3        1 MOL     -0.003779
     25 C11        -0.5780   -6.7720   -1.7440 c3        1 MOL      0.032779
     26 C12        -1.6840   -7.2820   -0.8480 c3        1 MOL     -0.003519
     27 N3         -2.6680   -8.1220   -1.5060 n4        1 MOL     -0.106197
     28 H8          2.0320   -3.6000   -0.1780 hn        1 MOL      0.267037
     29 H9          3.4180   -6.2580   -0.5760 h1        1 MOL      0.142816
     30 H10         1.9780   -6.2970   -2.5900 hc        1 MOL     -0.008573
     31 H11         1.3230   -4.8050   -2.1320 hc        1 MOL     -0.008573
     32 H12         0.2670   -5.7450   -0.1610 hc        1 MOL      0.012734
     33 H13         1.0660   -7.3250   -0.4900 hc        1 MOL      0.012734
     34 H14        -0.3800   -7.5410   -2.4920 hc        1 MOL      0.002849
     35 H15        -0.9180   -5.8890   -2.2680 hc        1 MOL      0.002849
     36 H16        -2.1970   -6.3570   -0.5710 hx        1 MOL      0.077284
     37 H17        -1.2730   -7.8000    0.0110 hx        1 MOL      0.077284
     38 H18        -3.4470   -8.5060   -1.0010 hn        1 MOL      0.213796
     39 H19        -2.9600   -7.6650   -2.3660 hn        1 MOL      0.213796
     40 H20        -2.3200   -8.9820   -1.9080 hn        1 MOL      0.213796
     41 N4          4.2160   -3.5420   -2.1450 n         1 MOL     -0.307102
     42 C13         5.3620   -2.8620   -2.8650 c3        1 MOL     -0.051118
     43 C14         6.5610   -2.5400   -1.9760 c         1 MOL      0.483356
     44 O6          7.7400   -2.7010   -2.3910 o         1 MOL     -0.553468
     45 C15         4.8790   -1.7030   -3.7110 c3        1 MOL     -0.183142
     46 C16         4.0780   -0.6430   -3.0020 c         1 MOL      0.689934
     47 O7          4.6740    0.1770   -2.2450 o         1 MOL     -0.726202
     48 O8          2.8520   -0.7000   -3.0010 o         1 MOL     -0.726202
     49 H21         3.6830   -2.9550   -1.5270 hn        1 MOL      0.227643
     50 H22         5.7460   -3.5800   -3.5960 h1        1 MOL      0.104508
     51 H23         4.2260   -1.9630   -4.5430 hc        1 MOL      0.069309
     52 H24         5.7090   -1.1700   -4.1820 hc        1 MOL      0.069309
     53 N5          6.2950   -2.1200   -0.7530 n         1 MOL     -0.098014
     54 C17         7.2290   -1.6560    0.2630 c3        1 MOL     -0.225029
     55 C18         7.5850   -0.1920    0.2720 c         1 MOL      0.427592
     56 O9          8.5830    0.2620    0.8880 o         1 MOL     -0.558714
     57 H25         5.3350   -1.9780   -0.4930 hn        1 MOL      0.076210
     58 H26         8.1290   -2.2090   -0.0170 h1        1 MOL      0.129499
     59 H27         6.9820   -2.0290    1.2580 h1        1 MOL      0.129499
     60 N6          6.7890    0.5830   -0.3820 n         1 MOL      0.005230
     61 C19         6.9280    2.0600   -0.4700 c3        1 MOL      0.011234
     62 C20         5.6540    2.8780   -0.2360 c         1 MOL      0.297874
     63 O10         4.5250    2.2880   -0.2690 o         1 MOL     -0.325175
     64 C21         7.3920    2.4190   -1.9030 c3        1 MOL     -0.090308
     65 C22         8.7670    1.9180   -2.3220 c         1 MOL      0.676615
     66 N7          8.7820    0.8670   -3.1500 n         1 MOL     -0.848679
     67 O11         9.7700    2.5610   -2.0510 o         1 MOL     -0.560400
     68 H28         5.9950    0.2010   -0.8780 hn        1 MOL      0.084106
     69 H29         7.7230    2.4770    0.1550 h1        1 MOL      0.057369
     70 H30         7.4900    3.5100   -1.9720 hc        1 MOL      0.012730
     71 H31         6.7400    2.0060   -2.6720 hc        1 MOL      0.012730
     72 H32         7.9850    0.2620   -3.2910 hn        1 MOL      0.384913
     73 H33         9.6580    0.6230   -3.5970 hn        1 MOL      0.384913
     74 N8          5.7080    4.2340   -0.0640 n         1 MOL     -0.288215
     75 C23         4.6520    5.2310   -0.1590 c3        1 MOL     -0.190320
     76 C24         3.5810    4.9730    0.8950 c         1 MOL      0.589356
     77 O12         3.8810    4.8250    2.0710 o         1 MOL     -0.520627
     78 H34         6.6430    4.6010    0.0650 hn        1 MOL      0.302095
     79 H35         4.1610    5.0410   -1.1110 h1        1 MOL      0.096544
     80 H36         5.1700    6.1870   -0.0680 h1        1 MOL      0.096544
     81 N9          2.3450    5.1800    0.5360 n         1 MOL     -0.364480
     82 C25         1.1870    4.7810    1.3380 c3        1 MOL     -0.038204
     83 C26         1.1910    3.2400    1.6040 c         1 MOL      0.666613
     84 O13         1.8890    2.5430    0.9310 o         1 MOL     -0.512440
     85 C27        -0.1060    5.1990    0.6190 c3        1 MOL     -0.062861
     86 C28        -0.2650    6.5830    0.0370 ca        1 MOL      0.000876
     87 C29        -0.5140    7.5730    0.9830 ca        1 MOL     -0.091062
     88 C30        -0.1970    6.8570   -1.3330 ca        1 MOL     -0.091062
     89 C31        -0.6550    8.8940    0.5360 ca        1 MOL     -0.274134
     90 C32        -0.3240    8.1650   -1.7910 ca        1 MOL     -0.274134
     91 C33        -0.5660    9.2250   -0.8600 ca        1 MOL      0.317301
     92 O14        -0.6640   10.4960   -1.3900 oh        1 MOL     -0.455883
     93 H37         2.2150    5.6780   -0.3340 hn        1 MOL      0.227334
     94 H38         1.1880    5.4110    2.2270 h1        1 MOL      0.077551
     95 H39        -1.0280    4.9750    1.1470 hc        1 MOL      0.030234
     96 H40        -0.0670    4.4430   -0.1630 hc        1 MOL      0.030234
     97 H41        -0.5980    7.3090    2.0310 ha        1 MOL      0.114035
     98 H42        -0.0280    6.0600   -2.0280 ha        1 MOL      0.114035
     99 H43        -0.7460    9.6920    1.2550 ha        1 MOL      0.161890
    100 H44        -0.3050    8.3800   -2.8510 ha        1 MOL      0.161890
    101 H45        -0.7790   11.1350   -0.6850 ho        1 MOL      0.365856
    102 N10         0.3510    2.8130    2.6110 n         1 MOL     -0.797608
    103 C34         0.1430    1.4380    3.1300 c3        1 MOL      0.384118
    104 C35        -0.2630    0.3960    2.0530 c         1 MOL     -0.026575
    105 O15         0.6200    0.0290    1.2850 o         1 MOL      0.002988
    106 C36         1.2440    0.8690    4.0950 c3        1 MOL      0.251710
    107 C37         0.8770   -0.4680    4.7660 c3        1 MOL     -0.175531
    108 C38         1.6810    1.9310    5.1120 c3        1 MOL     -0.442058
    109 C39        -0.3860   -0.4350    5.5870 c3        1 MOL     -0.028395
    110 H46        -0.2470    3.4920    3.0600 hn        1 MOL      0.356111
    111 H47        -0.6570    1.5680    3.8510 h1        1 MOL     -0.001469
    112 H48         2.1010    0.7750    3.4280 hc        1 MOL     -0.006210
    113 H49         1.6770   -0.7150    5.4600 hc        1 MOL      0.045072
    114 H50         0.9310   -1.2630    4.0320 hc        1 MOL      0.045072
    115 H51         2.4450    2.5960    4.7020 hc        1 MOL      0.119719
    116 H52         0.8270    2.5060    5.4590 hc        1 MOL      0.119719
    117 H53         2.1560    1.4760    5.9830 hc        1 MOL      0.119719
    118 H54        -0.6130   -1.3470    6.1360 hc        1 MOL      0.003844
    119 H55        -0.2690    0.4210    6.2620 hc        1 MOL      0.003844
    120 H56        -1.1550   -0.2090    4.8500 hc        1 MOL      0.003844
    121 N11        -1.4970   -0.1040    1.9950 n         1 MOL     -0.204108
    122 C40        -1.8290   -1.3000    1.2650 c3        1 MOL      0.013107
    123 C41        -3.3280   -1.3900    0.7740 c         1 MOL      0.560082
    124 O16        -3.9790   -2.4610    0.8760 o         1 MOL     -0.523182
    125 C42        -1.3320   -2.5940    1.9600 c3        1 MOL      0.002097
    126 O17        -0.5810   -3.5240    1.0910 oh        1 MOL     -0.587372
    127 H57        -2.2720    0.4210    2.3750 hn        1 MOL      0.233399
    128 H58        -1.2350   -1.2080    0.3540 h1        1 MOL      0.031273
    129 H59        -2.1360   -3.1060    2.4940 h1        1 MOL      0.066277
    130 H60        -0.6570   -2.3040    2.7670 h1        1 MOL      0.066277
    131 H61        -0.2050   -4.1490    1.7220 ho        1 MOL      0.417056
    132 N12        -3.7950   -0.2790    0.2150 n         1 MOL     -0.508449
    133 C43        -5.1830   -0.1690   -0.1580 c3        1 MOL      0.118622
    134 C44        -5.3580    0.6230   -1.4320 c         1 MOL      0.645033
    135 O18        -4.5240    1.5040   -1.6330 o         1 MOL     -0.591437
    136 C45        -5.9090    0.4000    1.0920 c3        1 MOL     -0.188571
    137 H62        -3.1290    0.4620    0.0410 hn        1 MOL      0.248062
    138 H63        -5.4860   -1.1630   -0.4770 h1        1 MOL      0.080227
    139 H64        -6.9930    0.3150    1.0150 hc        1 MOL      0.067110
    140 H65        -5.5120   -0.0610    1.9890 hc        1 MOL      0.067110
    141 H66        -5.6940    1.4610    1.2150 hc        1 MOL      0.067110
    142 N13        -6.3240    0.4480   -2.3200 n         1 MOL     -0.664901
    143 C46        -7.5370   -0.3890   -2.0430 c3        1 MOL      0.460792
    144 C47        -8.8250    0.2820   -2.5520 c         1 MOL      0.331331
    145 O19        -8.7760    0.9640   -3.5720 o         1 MOL     -0.510918
    146 C48        -7.3430   -1.7490   -2.8060 c3        1 MOL     -0.416685
    147 H67        -6.4310    1.0280   -3.1380 hn        1 MOL      0.360826
    148 H68        -7.6560   -0.5480   -0.9700 h1        1 MOL     -0.078227
    149 H69        -6.6280   -2.4110   -2.3040 hc        1 MOL      0.118491
    150 H70        -8.3080   -2.2480   -2.8280 hc        1 MOL      0.118491
    151 H71        -7.0020   -1.4980   -3.8060 hc        1 MOL      0.118491
    152 N14        -9.9580    0.1710   -1.8500 n         1 MOL     -0.336637
    153 C49       -10.2140   -0.6090   -0.6320 c3        1 MOL     -0.145935
    154 C50        -9.6830    0.0120    0.6170 c         1 MOL      0.518929
    155 O20        -9.4370   -0.7040    1.6140 o         1 MOL     -0.527084
    156 C51       -11.6870   -1.0560   -0.6560 c3        1 MOL      0.245124
    157 C52       -12.7610    0.0200   -0.5550 c3        1 MOL     -0.267807
    158 C53       -14.2290   -0.2460   -0.7800 c         1 MOL      0.720564
    159 O21       -14.7720   -1.1880   -0.1750 o         1 MOL     -0.658758
    160 O22       -14.8320    0.4210   -1.6200 o         1 MOL     -0.658758
    161 H72       -10.7300    0.7540   -2.1440 hn        1 MOL      0.303813
    162 H73        -9.7080   -1.5650   -0.8150 h1        1 MOL      0.061916
    163 H74       -11.8350   -1.8680    0.0650 hc        1 MOL     -0.012135
    164 H75       -11.8080   -1.5440   -1.6190 hc        1 MOL     -0.012135
    165 H76       -12.4890    0.8840   -1.1570 hc        1 MOL      0.026986
    166 H77       -12.6790    0.2540    0.5110 hc        1 MOL      0.026986
    167 N15        -9.7050    1.3330    0.7750 n         1 MOL     -0.309418
    168 C54        -9.1390    2.0390    1.9700 c3        1 MOL     -0.113405
    169 H78        -8.8590    1.3050    2.7270 h1        1 MOL      0.085296
    170 H79        -8.2580    2.6070    1.6740 h1        1 MOL      0.085296
    171 H80        -9.8880    2.7150    2.3820 h1        1 MOL      0.085296
    172 H81       -10.0340    1.8970   -0.0030 hn        1 MOL      0.236901
    173 Ca1         2.3810    0.6130   -0.7050 Ca        1 MOL      1.730867
    174 O23        -0.3290    0.8340   -1.5090 oh        1 MOL     -0.905128
    175 H82        -0.6920    0.3600   -2.2570 ho        1 MOL      0.435356
    176 H83        -0.9480    1.5520   -1.3700 ho        1 MOL      0.435356
    177 O24         0.8730   -1.8780   -1.0320 oh        1 MOL     -0.905128
    178 H84         0.2110   -2.3000   -0.4780 ho        1 MOL      0.435356
    179 H85         0.7100   -2.2220   -1.9080 ho        1 MOL      0.435356
    180 O25         2.0400    2.8200   -2.2460 oh        1 MOL     -0.905128
    181 H86         1.1850    2.9990   -2.6520 ho        1 MOL      0.435356
    182 H87         2.6370    3.4350   -2.6680 ho        1 MOL      0.435356
@<TRIPOS>BOND
     1    1    2 1   
     2    1    4 1   
     3    1    5 1   
     4    1    6 1   
     5    2    3 2   
     6    2    7 1   
     7    7    8 1   
     8    7   15 1   
     9    8    9 1   
    10    8   11 1   
    11    8   16 1   
    12    9   10 2   
    13    9   19 1   
    14   11   12 1   
    15   11   17 1   
    16   11   18 1   
    17   12   13 1   
    18   12   14 1   
    19   19   20 1   
    20   19   28 1   
    21   20   21 1   
    22   20   23 1   
    23   20   29 1   
    24   21   22 2   
    25   21   41 1   
    26   23   24 1   
    27   23   30 1   
    28   23   31 1   
    29   24   25 1   
    30   24   32 1   
    31   24   33 1   
    32   25   26 1   
    33   25   34 1   
    34   25   35 1   
    35   26   27 1   
    36   26   36 1   
    37   26   37 1   
    38   27   38 1   
    39   27   39 1   
    40   27   40 1   
    41   41   42 1   
    42   41   49 1   
    43   42   43 1   
    44   42   45 1   
    45   42   50 1   
    46   43   44 2   
    47   43   53 1   
    48   45   46 1   
    49   45   51 1   
    50   45   52 1   
    51   46   47 1   
    52   46   48 1   
    53   53   54 1   
    54   53   57 1   
    55   54   55 1   
    56   54   58 1   
    57   54   59 1   
    58   55   56 2   
    59   55   60 1   
    60   60   61 1   
    61   60   68 1   
    62   61   62 1   
    63   61   64 1   
    64   61   69 1   
    65   62   63 2   
    66   62   74 1   
    67   64   65 1   
    68   64   70 1   
    69   64   71 1   
    70   65   66 1   
    71   65   67 2   
    72   66   72 1   
    73   66   73 1   
    74   74   75 1   
    75   74   78 1   
    76   75   76 1   
    77   75   79 1   
    78   75   80 1   
    79   76   77 2   
    80   76   81 1   
    81   81   82 1   
    82   81   93 1   
    83   82   83 1   
    84   82   85 1   
    85   82   94 1   
    86   83   84 2   
    87   83  102 1   
    88   85   86 1   
    89   85   95 1   
    90   85   96 1   
    91   86   87 ar  
    92   86   88 ar  
    93   87   89 ar  
    94   87   97 1   
    95   88   90 ar  
    96   88   98 1   
    97   89   91 ar  
    98   89   99 1   
    99   90   91 ar  
   100   90  100 1   
   101   91   92 1   
   102   92  101 1   
   103  102  103 1   
   104  102  110 1   
   105  103  104 1   
   106  103  106 1   
   107  103  111 1   
   108  104  105 2   
   109  104  121 1   
   110  106  107 1   
   111  106  108 1   
   112  106  112 1   
   113  107  109 1   
   114  107  113 1   
   115  107  114 1   
   116  108  115 1   
   117  108  116 1   
   118  108  117 1   
   119  109  118 1   
   120  109  119 1   
   121  109  120 1   
   122  121  122 1   
   123  121  127 1   
   124  122  123 1   
   125  122  125 1   
   126  122  128 1   
   127  123  124 2   
   128  123  132 1   
   129  125  126 1   
   130  125  129 1   
   131  125  130 1   
   132  126  131 1   
   133  132  133 1   
   134  132  137 1   
   135  133  134 1   
   136  133  136 1   
   137  133  138 1   
   138  134  135 2   
   139  134  142 1   
   140  136  139 1   
   141  136  140 1   
   142  136  141 1   
   143  142  143 1   
   144  142  147 1   
   145  143  144 1   
   146  143  146 1   
   147  143  148 1   
   148  144  145 2   
   149  144  152 1   
   150  146  149 1   
   151  146  150 1   
   152  146  151 1   
   153  152  153 1   
   154  152  161 1   
   155  153  154 1   
   156  153  156 1   
   157  153  162 1   
   158  154  155 2   
   159  154  167 1   
   160  156  157 1   
   161  156  163 1   
   162  156  164 1   
   163  157  158 1   
   164  157  165 1   
   165  157  166 1   
   166  158  159 1   
   167  158  160 1   
   168  167  168 1   
   169  167  172 1   
   170  168  169 1   
   171  168  170 1   
   172  168  171 1   
   173  174  175 1   
   174  174  176 1   
   175  177  178 1   
   176  177  179 1   
   177  180  181 1   
   178  180  182 1   
@<TRIPOS>SUBSTRUCTURE
     1 MOL         1 TEMP              0 ****  ****    0 ROOT
