@<TRIPOS>MOLECULE
MOL
  181   177     1     0     0
SMALL
resp


@<TRIPOS>ATOM
      1 C1         11.5760   -6.1800    1.2180 c3        1 MOL     -0.401952
      2 C2         11.2440   -5.0120    0.3050 c         1 MOL      0.733224
      3 O1         10.8970   -5.2620   -0.8470 o         1 MOL     -0.583062
      4 H1         11.8400   -7.0480    0.6130 hc        1 MOL      0.104659
      5 H2         12.4170   -5.9150    1.8580 hc        1 MOL      0.104659
      6 H3         10.7090   -6.4190    1.8350 hc        1 MOL      0.104659
      7 N1         11.3280   -3.7440    0.7540 n         1 MOL     -0.646527
      8 C3         11.5240   -3.2500    2.1240 c3        1 MOL      0.102160
      9 C4         12.1810   -1.8250    2.2750 c         1 MOL      0.497085
     10 O2         12.7020   -1.4640    3.3070 o         1 MOL     -0.537545
     11 C5         10.0710   -3.2400    2.7030 c3        1 MOL     -0.189045
     12 C6          9.0200   -2.3960    1.9370 c         1 MOL      0.904514
     13 O3          7.8300   -2.5950    2.1110 o         1 MOL     -0.813214
     14 O4          9.3140   -1.5920    1.0220 o         1 MOL     -0.813214
     15 H4         11.0410   -3.0470    0.0730 hn        1 MOL      0.341362
     16 H5         12.0970   -3.9820    2.7040 h1        1 MOL      0.066413
     17 H6         10.1210   -2.8830    3.7320 hc        1 MOL      0.044494
     18 H7          9.6320   -4.2300    2.7850 hc        1 MOL      0.044494
     19 N2         12.2400   -1.1170    1.1600 n         1 MOL     -0.515539
     20 C7         12.7500    0.2340    1.1200 c3        1 MOL      0.562693
     21 C8         11.7940    1.2190    0.4750 c         1 MOL      0.206525
     22 O5         12.3060    2.3820    0.2940 o         1 MOL     -0.532704
     23 C9         14.1350    0.1710    0.5670 c3        1 MOL     -0.332676
     24 H8         11.9890   -1.5260    0.2680 hn        1 MOL      0.271464
     25 H9         12.8970    0.5730    2.1410 h1        1 MOL     -0.007404
     26 H10        14.1470   -0.2800   -0.4260 hc        1 MOL      0.068976
     27 H11        14.4420    1.2140    0.5110 hc        1 MOL      0.068976
     28 H12        14.7190   -0.3480    1.3180 hc        1 MOL      0.068976
     29 N3         10.5240    0.8720    0.1470 n         1 MOL     -0.097585
     30 C10         9.6260    1.8930   -0.3980 c3        1 MOL      0.113837
     31 C11         8.2460    1.9570    0.2360 c         1 MOL      0.215058
     32 O6          7.7100    1.0340    0.7840 o         1 MOL     -0.404873
     33 C12         9.4520    1.7990   -1.9640 c3        1 MOL     -0.254527
     34 C13         8.9650    0.4950   -2.5810 c         1 MOL      0.700462
     35 O7          9.0830    0.3500   -3.8100 o         1 MOL     -0.676214
     36 O8          8.5610   -0.4900   -1.8630 o         1 MOL     -0.676214
     37 H13        10.1040   -0.0330    0.3470 hn        1 MOL      0.114404
     38 H14        10.1470    2.8510   -0.2810 h1        1 MOL      0.035332
     39 H15        10.4180    2.0360   -2.3990 hc        1 MOL      0.070698
     40 H16         8.7680    2.5820   -2.3030 hc        1 MOL      0.070698
     41 N4          7.6390    3.1360    0.3610 n         1 MOL     -0.163228
     42 C14         6.2430    3.3650    0.8350 c3        1 MOL     -0.431855
     43 C15         5.2140    3.1720   -0.2800 c         1 MOL      0.927769
     44 O9          5.1810    3.9660   -1.2050 o         1 MOL     -0.625412
     45 H17         8.0700    3.9580   -0.0350 hn        1 MOL      0.245649
     46 H18         6.0520    4.3940    1.1330 h1        1 MOL      0.153637
     47 H19         5.9320    2.7250    1.6600 h1        1 MOL      0.153637
     48 N5          4.3040    2.1920   -0.1030 n         1 MOL     -0.827160
     49 C16         3.1640    1.8890   -0.9680 c3        1 MOL      0.354201
     50 C17         1.8860    2.4030   -0.3020 c         1 MOL      0.425073
     51 O10         1.7010    2.1430    0.8730 o         1 MOL     -0.496284
     52 C18         3.0850    0.3510   -1.1490 c3        1 MOL     -0.367447
     53 C19         4.1390   -0.0790   -2.1850 c         1 MOL      0.502276
     54 N6          3.8020   -0.2980   -3.3660 n         1 MOL     -0.551356
     55 O11         5.3070   -0.2040   -1.8790 o         1 MOL     -0.557835
     56 H20         4.3700    1.6410    0.7470 hn        1 MOL      0.370694
     57 H21         3.4290    2.2700   -1.9600 h1        1 MOL      0.082941
     58 H22         2.1610   -0.0300   -1.5820 hc        1 MOL      0.117885
     59 H23         3.3570   -0.1610   -0.2180 hc        1 MOL      0.117885
     60 H24         2.8260   -0.3940   -3.6000 hn        1 MOL      0.308065
     61 H25         4.4660   -0.8610   -3.8790 hn        1 MOL      0.308065
     62 N7          1.0830    3.2220   -0.9680 n         1 MOL     -0.327921
     63 C20         0.1370    4.1290   -0.3720 c3        1 MOL     -0.006012
     64 C21        -0.5750    5.1490   -1.2810 c         1 MOL      0.554877
     65 O12        -0.2300    5.3760   -2.4510 o         1 MOL     -0.541096
     66 H26         1.3410    3.2880   -1.9470 hn        1 MOL      0.193283
     67 H27         0.6470    4.7150    0.3860 h1        1 MOL      0.103243
     68 H28        -0.6860    3.5350    0.0270 h1        1 MOL      0.103243
     69 N8         -1.6710    5.8200   -0.8150 n         1 MOL     -0.507093
     70 C22        -2.3060    5.5900    0.4910 c3        1 MOL     -0.027265
     71 C23        -3.6380    4.8160    0.4730 c         1 MOL      0.743238
     72 O13        -4.3500    4.8090    1.4790 o         1 MOL     -0.582765
     73 C24        -2.3510    6.9530    1.2770 c3        1 MOL      0.298328
     74 C25        -0.9700    7.4160    1.6680 c3        1 MOL     -0.121216
     75 O14        -2.8950    7.8990    0.4420 oh        1 MOL     -0.585611
     76 H29        -2.0830    6.4630   -1.4830 hn        1 MOL      0.304817
     77 H30        -1.7210    4.9330    1.1350 h1        1 MOL      0.068453
     78 H31        -2.9740    6.8090    2.1630 h1        1 MOL      0.000033
     79 H32        -3.8150    7.6700    0.3290 ho        1 MOL      0.365376
     80 H33        -0.4650    6.7680    2.3790 hc        1 MOL      0.029696
     81 H34        -0.2690    7.4270    0.8290 hc        1 MOL      0.029696
     82 H35        -0.8600    8.4500    2.0270 hc        1 MOL      0.029696
     83 N9         -3.8960    4.0990   -0.6200 n         1 MOL     -0.804682
     84 C26        -4.9390    3.0420   -0.6320 c3        1 MOL      0.008002
     85 C27        -4.3200    1.8020    0.0740 c         1 MOL      0.660547
     86 O15        -3.1800    1.4110   -0.2200 o         1 MOL     -0.571334
     87 C28        -5.4190    2.7080   -2.0670 c3        1 MOL      0.060235
     88 C29        -5.7350    4.0270   -2.8790 c3        1 MOL      0.322561
     89 C30        -6.6210    1.6970   -1.9860 c3        1 MOL      0.010090
     90 C31        -6.2620    3.7900   -4.2910 c3        1 MOL     -0.228156
     91 H36        -3.2560    4.1590   -1.4020 hn        1 MOL      0.393636
     92 H37        -5.7870    3.4770   -0.1100 h1        1 MOL      0.099903
     93 H38        -4.5690    2.2800   -2.6020 hc        1 MOL      0.052428
     94 H39        -4.8120    4.5860   -2.9810 hc        1 MOL     -0.107887
     95 H40        -6.4800    4.6420   -2.3730 hc        1 MOL     -0.107887
     96 H41        -6.1860    0.9220   -1.3720 hc        1 MOL     -0.009642
     97 H42        -7.4850    2.1730   -1.5270 hc        1 MOL     -0.009642
     98 H43        -6.9420    1.2700   -2.9330 hc        1 MOL     -0.009642
     99 H44        -7.3180    3.5030   -4.2820 hc        1 MOL      0.038293
    100 H45        -6.1460    4.6710   -4.9100 hc        1 MOL      0.038293
    101 H46        -5.6900    2.9760   -4.7470 hc        1 MOL      0.038293
    102 N10        -4.9530    1.2610    1.0630 n         1 MOL     -0.462297
    103 C32        -6.1390    1.7970    1.8370 c3        1 MOL      0.203001
    104 C33        -7.2650    0.7180    1.9480 c         1 MOL      0.563960
    105 O16        -7.1500   -0.2140    2.7420 o         1 MOL     -0.507209
    106 C34        -5.6350    2.2910    3.2060 c3        1 MOL     -0.298705
    107 C35        -4.4420    1.5210    3.8270 c         1 MOL      0.708730
    108 O17        -4.6070    0.5540    4.5940 o         1 MOL     -0.687115
    109 O18        -3.2850    1.8210    3.5150 o         1 MOL     -0.687115
    110 H47        -4.5040    0.4320    1.4410 hn        1 MOL      0.339011
    111 H48        -6.5680    2.6610    1.3390 h1        1 MOL      0.005165
    112 H49        -6.4770    2.3400    3.8970 hc        1 MOL      0.050759
    113 H50        -5.2860    3.3230    3.1160 hc        1 MOL      0.050759
    114 N11        -8.3140    0.8830    1.1610 n         1 MOL     -0.742206
    115 C36        -9.4880   -0.0390    1.1170 c3        1 MOL      0.673917
    116 C37        -9.8230   -0.4600   -0.3200 c         1 MOL      0.127173
    117 O19        -9.9170    0.4920   -1.1650 o         1 MOL     -0.507407
    118 C38       -10.7370    0.5250    1.8090 c3        1 MOL     -0.272643
    119 C39       -11.7970   -0.5600    2.1240 ca        1 MOL      0.132245
    120 C40       -11.6540   -1.3850    3.2550 ca        1 MOL     -0.224774
    121 C41       -12.8530   -0.7970    1.2270 ca        1 MOL     -0.224774
    122 C42       -12.6300   -2.2730    3.5700 ca        1 MOL     -0.027588
    123 C43       -13.7270   -1.8790    1.5080 ca        1 MOL     -0.027588
    124 C44       -13.7000   -2.5290    2.7530 ca        1 MOL     -0.222451
    125 H51        -8.2650    1.5360    0.3920 hn        1 MOL      0.305445
    126 H52        -9.2220   -0.9240    1.6960 h1        1 MOL     -0.047097
    127 H53       -11.1840    1.3120    1.1990 hc        1 MOL      0.074930
    128 H54       -10.4260    0.9940    2.7380 hc        1 MOL      0.074930
    129 H55       -10.8260   -1.2700    3.9350 ha        1 MOL      0.145367
    130 H56       -13.0750   -0.2060    0.3450 ha        1 MOL      0.145367
    131 H57       -12.5590   -2.8230    4.5000 ha        1 MOL      0.085141
    132 H58       -14.5210   -2.1080    0.8160 ha        1 MOL      0.085141
    133 H59       -14.3530   -3.3490    2.9870 ha        1 MOL      0.123591
    134 N12       -10.0770   -1.7490   -0.7160 n         1 MOL      0.083794
    135 C45        -9.9430   -3.0340    0.0960 c3        1 MOL     -0.102626
    136 C46        -8.5320   -3.6710    0.0320 c         1 MOL      0.313685
    137 O20        -8.1760   -4.3010    1.0050 o         1 MOL     -0.483656
    138 C47       -10.9620   -4.0380   -0.5340 c3        1 MOL      0.025888
    139 C48       -11.6690   -3.2930   -1.7060 c3        1 MOL     -0.065147
    140 C49       -10.7350   -2.1300   -2.0130 c3        1 MOL     -0.125040
    141 H60       -10.2380   -2.8610    1.1290 h1        1 MOL      0.108049
    142 H61       -10.5130   -4.9200   -0.9770 hc        1 MOL      0.026436
    143 H62       -11.7130   -4.4840    0.1180 hc        1 MOL      0.026436
    144 H63       -11.7420   -3.9780   -2.5500 hc        1 MOL      0.021724
    145 H64       -12.6200   -2.9490   -1.2980 hc        1 MOL      0.021724
    146 H65        -9.9950   -2.5190   -2.7120 h1        1 MOL      0.086031
    147 H66       -11.2840   -1.2980   -2.4460 h1        1 MOL      0.086031
    148 N13        -7.7550   -3.4350   -1.0090 n         1 MOL     -0.271263
    149 C50        -6.5330   -4.2140   -1.2940 c3        1 MOL      0.219755
    150 C51        -6.8900   -5.6170   -1.7410 c         1 MOL      0.407412
    151 O21        -7.0080   -5.8670   -2.9210 o         1 MOL     -0.579540
    152 C52        -5.6040   -3.5010   -2.2370 c3        1 MOL     -0.149502
    153 C53        -4.8290   -2.3200   -1.5890 c3        1 MOL     -0.068642
    154 C54        -4.2210   -1.4040   -2.6900 c         1 MOL      0.730912
    155 O22        -4.9320   -0.5550   -3.2250 o         1 MOL     -0.732915
    156 O23        -3.0030   -1.5410   -2.9890 o         1 MOL     -0.732915
    157 H67        -8.0180   -2.7030   -1.6590 hn        1 MOL      0.243778
    158 H68        -6.0930   -4.2530   -0.2990 h1        1 MOL      0.075305
    159 H69        -6.2410   -3.0690   -3.0070 hc        1 MOL      0.048885
    160 H70        -4.8750   -4.1940   -2.6690 hc        1 MOL      0.048885
    161 H71        -4.0320   -2.6880   -0.9400 hc        1 MOL     -0.031050
    162 H72        -5.5150   -1.7190   -1.0010 hc        1 MOL     -0.031050
    163 N14        -6.8350   -6.6890   -0.9630 n         1 MOL     -0.303539
    164 C55        -6.3450   -6.7170    0.4380 c3        1 MOL     -0.122487
    165 H73        -6.7380   -5.8550    0.9770 h1        1 MOL      0.063724
    166 H74        -6.6830   -7.6330    0.9230 h1        1 MOL      0.063724
    167 H75        -5.2560   -6.6830    0.4440 h1        1 MOL      0.063724
    168 H76        -7.1110   -7.5600   -1.3940 hn        1 MOL      0.256699
    169 Ca1         6.8950   -1.6090   -0.1220 Ca        1 MOL      1.759649
    170 O24         6.7050   -2.5620   -2.6610 oh        1 MOL     -0.820079
    171 H77         5.9360   -3.0800   -2.9170 ho        1 MOL      0.395330
    172 H78         7.0960   -2.2960   -3.4940 ho        1 MOL      0.395330
    173 O25         7.5470   -4.3100   -0.2390 oh        1 MOL     -0.820079
    174 H79         6.9410   -4.7400    0.3600 ho        1 MOL      0.395330
    175 H80         7.9480   -5.0290   -0.7280 ho        1 MOL      0.395330
    176 O26         5.2530   -0.3930    1.6810 oh        1 MOL     -0.820079
    177 H81         5.4680   -0.1170    2.5750 ho        1 MOL      0.395330
    178 H82         4.4080   -0.8380    1.7580 ho        1 MOL      0.395330
    179 O27         4.6770   -3.4070   -0.1820 oh        1 MOL     -0.820079
    180 H83         4.0080   -3.4740    0.5010 ho        1 MOL      0.395330
    181 H84         4.4020   -4.0360   -0.8470 ho        1 MOL      0.395330
@<TRIPOS>BOND
     1    1    2 1   
     2    1    4 1   
     3    1    5 1   
     4    1    6 1   
     5    2    3 2   
     6    2    7 1   
     7    7    8 1   
     8    7   15 1   
     9    8    9 1   
    10    8   11 1   
    11    8   16 1   
    12    9   10 2   
    13    9   19 1   
    14   11   12 1   
    15   11   17 1   
    16   11   18 1   
    17   12   13 1   
    18   12   14 1   
    19   19   20 1   
    20   19   24 1   
    21   20   21 1   
    22   20   23 1   
    23   20   25 1   
    24   21   22 2   
    25   21   29 1   
    26   23   26 1   
    27   23   27 1   
    28   23   28 1   
    29   29   30 1   
    30   29   37 1   
    31   30   31 1   
    32   30   33 1   
    33   30   38 1   
    34   31   32 2   
    35   31   41 1   
    36   33   34 1   
    37   33   39 1   
    38   33   40 1   
    39   34   35 1   
    40   34   36 1   
    41   41   42 1   
    42   41   45 1   
    43   42   43 1   
    44   42   46 1   
    45   42   47 1   
    46   43   44 2   
    47   43   48 1   
    48   48   49 1   
    49   48   56 1   
    50   49   50 1   
    51   49   52 1   
    52   49   57 1   
    53   50   51 2   
    54   50   62 1   
    55   52   53 1   
    56   52   58 1   
    57   52   59 1   
    58   53   54 1   
    59   53   55 2   
    60   54   60 1   
    61   54   61 1   
    62   62   63 1   
    63   62   66 1   
    64   63   64 1   
    65   63   67 1   
    66   63   68 1   
    67   64   65 2   
    68   64   69 1   
    69   69   70 1   
    70   69   76 1   
    71   70   71 1   
    72   70   73 1   
    73   70   77 1   
    74   71   72 2   
    75   71   83 1   
    76   73   74 1   
    77   73   75 1   
    78   73   78 1   
    79   74   80 1   
    80   74   81 1   
    81   74   82 1   
    82   75   79 1   
    83   83   84 1   
    84   83   91 1   
    85   84   85 1   
    86   84   87 1   
    87   84   92 1   
    88   85   86 2   
    89   85  102 1   
    90   87   88 1   
    91   87   89 1   
    92   87   93 1   
    93   88   90 1   
    94   88   94 1   
    95   88   95 1   
    96   89   96 1   
    97   89   97 1   
    98   89   98 1   
    99   90   99 1   
   100   90  100 1   
   101   90  101 1   
   102  102  103 1   
   103  102  110 1   
   104  103  104 1   
   105  103  106 1   
   106  103  111 1   
   107  104  105 2   
   108  104  114 1   
   109  106  107 1   
   110  106  112 1   
   111  106  113 1   
   112  107  108 1   
   113  107  109 1   
   114  114  115 1   
   115  114  125 1   
   116  115  116 1   
   117  115  118 1   
   118  115  126 1   
   119  116  117 2   
   120  116  134 1   
   121  118  119 1   
   122  118  127 1   
   123  118  128 1   
   124  119  120 ar  
   125  119  121 ar  
   126  120  122 ar  
   127  120  129 1   
   128  121  123 ar  
   129  121  130 1   
   130  122  124 ar  
   131  122  131 1   
   132  123  124 ar  
   133  123  132 1   
   134  124  133 1   
   135  134  135 1   
   136  134  140 1   
   137  135  136 1   
   138  135  138 1   
   139  135  141 1   
   140  136  137 2   
   141  136  148 1   
   142  138  139 1   
   143  138  142 1   
   144  138  143 1   
   145  139  140 1   
   146  139  144 1   
   147  139  145 1   
   148  140  146 1   
   149  140  147 1   
   150  148  149 1   
   151  148  157 1   
   152  149  150 1   
   153  149  152 1   
   154  149  158 1   
   155  150  151 2   
   156  150  163 1   
   157  152  153 1   
   158  152  159 1   
   159  152  160 1   
   160  153  154 1   
   161  153  161 1   
   162  153  162 1   
   163  154  155 1   
   164  154  156 1   
   165  163  164 1   
   166  163  168 1   
   167  164  165 1   
   168  164  166 1   
   169  164  167 1   
   170  170  171 1   
   171  170  172 1   
   172  173  174 1   
   173  173  175 1   
   174  176  177 1   
   175  176  178 1   
   176  179  180 1   
   177  179  181 1   
@<TRIPOS>SUBSTRUCTURE
     1 MOL         1 TEMP              0 ****  ****    0 ROOT
