@<TRIPOS>MOLECULE
MOL
  175   173     1     0     0
SMALL
resp


@<TRIPOS>ATOM
      1 C1         -6.2910    8.0900    0.8520 c3        1 MOL     -0.347557
      2 C2         -7.4390    7.2760    0.2150 c         1 MOL      0.641127
      3 O1         -7.7950    7.4600   -0.9500 o         1 MOL     -0.540697
      4 H1         -6.6990    8.9800    1.3320 hc        1 MOL      0.085482
      5 H2         -5.7800    7.4790    1.5960 hc        1 MOL      0.085482
      6 H3         -5.5830    8.3880    0.0780 hc        1 MOL      0.085482
      7 N1         -8.1070    6.3780    1.0540 n         1 MOL     -0.554291
      8 C3         -8.9740    5.3510    0.4420 c3        1 MOL      0.155450
      9 C4         -8.1680    4.3470   -0.4880 c         1 MOL      0.507961
     10 O2         -8.7350    3.8620   -1.4900 o         1 MOL     -0.537352
     11 C5         -9.8920    4.7380    1.5300 c3        1 MOL     -0.275340
     12 C6        -10.6880    3.5870    1.0120 c         1 MOL      0.758655
     13 O3        -11.8750    3.8020    0.6920 o         1 MOL     -0.737473
     14 O4        -10.2330    2.4190    1.0190 o         1 MOL     -0.737473
     15 H4         -7.8150    6.3230    2.0090 hn        1 MOL      0.297940
     16 H5         -9.7180    5.8040   -0.2180 h1        1 MOL      0.074328
     17 H6        -10.5320    5.5460    1.8810 hc        1 MOL      0.033688
     18 H7         -9.2460    4.3700    2.3330 hc        1 MOL      0.033688
     19 N2         -6.9180    4.1310   -0.2320 n         1 MOL     -0.533405
     20 C7         -6.0040    3.2610   -0.9510 c3        1 MOL      0.387785
     21 C8         -5.0160    2.5990   -0.0030 c         1 MOL      0.347555
     22 O5         -4.3210    3.2150    0.8370 o         1 MOL     -0.518707
     23 C9         -5.2790    4.1050   -2.0280 c3        1 MOL     -0.351882
     24 H8         -6.5020    4.7180    0.4710 hn        1 MOL      0.260287
     25 H9         -6.5730    2.4960   -1.4830 h1        1 MOL      0.021222
     26 H10        -4.4600    4.6820   -1.5960 hc        1 MOL      0.100922
     27 H11        -4.8130    3.5420   -2.8390 hc        1 MOL      0.100922
     28 H12        -6.0280    4.7140   -2.5400 hc        1 MOL      0.100922
     29 N3         -4.7950    1.2560   -0.0450 n         1 MOL     -0.120245
     30 C10        -5.3760    0.2890   -0.9500 c3        1 MOL     -0.432719
     31 C11        -5.7090   -1.1220   -0.3720 c         1 MOL      0.626515
     32 O6         -5.0570   -1.5850    0.6110 o         1 MOL     -0.542764
     33 C12        -4.5910    0.2230   -2.2350 c3        1 MOL      0.086673
     34 C13        -3.0750   -0.0680   -2.1090 c         1 MOL      0.580697
     35 O7         -2.7220   -1.2550   -2.2850 o         1 MOL     -0.690767
     36 O8         -2.2490    0.8520   -1.8820 o         1 MOL     -0.690767
     37 H13        -4.2440    1.0410    0.7720 hn        1 MOL      0.208408
     38 H14        -6.3320    0.7280   -1.2310 h1        1 MOL      0.143194
     39 H15        -4.5900    1.2260   -2.6600 hc        1 MOL     -0.003949
     40 H16        -5.0200   -0.4180   -3.0100 hc        1 MOL     -0.003949
     41 N4         -6.6730   -1.8390   -0.9660 n         1 MOL     -0.382919
     42 C14        -7.2260   -3.0700   -0.4350 c3        1 MOL      0.029349
     43 C15        -7.0090   -4.3120   -1.3710 c         1 MOL      0.550023
     44 O9         -8.0530   -4.9340   -1.6730 o         1 MOL     -0.555617
     45 H17        -7.1320   -1.3040   -1.6950 hn        1 MOL      0.307042
     46 H18        -8.3070   -3.0040   -0.2360 h1        1 MOL      0.061860
     47 H19        -6.6970   -3.3540    0.4670 h1        1 MOL      0.061860
     48 N5         -5.7950   -4.7030   -1.8090 n         1 MOL     -0.535809
     49 C16        -4.4500   -4.2870   -1.2900 c3        1 MOL      0.013482
     50 C17        -4.0870   -4.9900    0.0350 c         1 MOL      0.496052
     51 O10        -3.6470   -6.1340    0.1060 o         1 MOL     -0.527185
     52 C18        -3.3500   -4.6920   -2.3400 c3        1 MOL      0.100912
     53 C19        -2.0030   -4.2090   -1.9500 c         1 MOL      0.356335
     54 N6         -0.9720   -4.6800   -2.4990 n         1 MOL     -0.556714
     55 O11        -1.7760   -3.5130   -0.9450 o         1 MOL     -0.630382
     56 H20        -5.7490   -5.2900   -2.6270 hn        1 MOL      0.317356
     57 H21        -4.4140   -3.2090   -1.1560 h1        1 MOL      0.062948
     58 H22        -3.6280   -4.2800   -3.3060 hc        1 MOL      0.018840
     59 H23        -3.3540   -5.7550   -2.5420 hc        1 MOL      0.018840
     60 H24        -1.0260   -5.3100   -3.2790 hn        1 MOL      0.314450
     61 H25        -0.0630   -4.3360   -2.1970 hn        1 MOL      0.314450
     62 N7         -4.1220   -4.2030    1.1450 n         1 MOL     -0.168322
     63 C20        -3.8880   -4.6230    2.5170 c3        1 MOL     -0.399818
     64 C21        -2.3990   -4.8560    2.8540 c         1 MOL      0.591883
     65 O12        -2.0540   -5.4060    3.9260 o         1 MOL     -0.592467
     66 H26        -4.4200   -3.2510    0.9990 hn        1 MOL      0.244033
     67 H27        -4.3610   -5.5910    2.6790 h1        1 MOL      0.153188
     68 H28        -4.2960   -3.9500    3.2840 h1        1 MOL      0.153188
     69 N8         -1.4950   -4.5910    1.9110 n         1 MOL     -0.370455
     70 C22         0.0120   -4.8200    2.0730 c3        1 MOL     -0.134436
     71 C23         0.7470   -3.5240    1.8830 c         1 MOL      0.550616
     72 O13         0.2570   -2.6900    1.0980 o         1 MOL     -0.648408
     73 C24         0.4490   -5.9330    1.1670 c3        1 MOL      0.404226
     74 C25        -0.1380   -7.3070    1.5670 c3        1 MOL     -0.210828
     75 O14         0.1340   -5.6610   -0.1490 oh        1 MOL     -0.497574
     76 H29        -1.8130   -4.2650    1.0010 hn        1 MOL      0.376981
     77 H30         0.2380   -5.0800    3.1060 h1        1 MOL      0.073323
     78 H31         1.5230   -6.0950    1.2580 h1        1 MOL     -0.042014
     79 H32         0.3690   -4.7340   -0.2610 ho        1 MOL      0.307401
     80 H33         0.5140   -7.7740    2.3090 hc        1 MOL      0.051145
     81 H34        -1.1200   -7.2380    2.0170 hc        1 MOL      0.051145
     82 H35        -0.1680   -8.0140    0.7390 hc        1 MOL      0.051145
     83 N9          1.9200   -3.3900    2.5310 n         1 MOL     -0.313666
     84 C26         2.9060   -2.3480    2.3180 c3        1 MOL      0.127602
     85 C27         3.8180   -2.8020    1.2160 c         1 MOL      0.267770
     86 O15         4.6940   -3.6750    1.3930 o         1 MOL     -0.543245
     87 C28         3.6370   -1.9930    3.6190 c3        1 MOL      0.093660
     88 C29         4.8440   -1.0350    3.6010 c3        1 MOL     -0.088449
     89 C30         2.5650   -1.3180    4.4530 c3        1 MOL     -0.318825
     90 C31         4.6940    0.3090    2.9520 c3        1 MOL     -0.051993
     91 H36         2.1380   -4.1460    3.1840 hn        1 MOL      0.233432
     92 H37         2.3580   -1.4380    2.0770 h1        1 MOL      0.054535
     93 H38         3.9670   -2.9070    4.1250 hc        1 MOL      0.011401
     94 H39         5.6310   -1.5500    3.0420 hc        1 MOL      0.024769
     95 H40         5.2170   -0.8580    4.6090 hc        1 MOL      0.024769
     96 H41         1.7360   -1.9560    4.7490 hc        1 MOL      0.076083
     97 H42         3.0820   -0.9630    5.3480 hc        1 MOL      0.076083
     98 H43         2.0630   -0.4570    4.0180 hc        1 MOL      0.076083
     99 H44         5.6310    0.8510    2.7940 hc        1 MOL      0.008761
    100 H45         4.3260    0.1640    1.9450 hc        1 MOL      0.008761
    101 H46         3.9570    0.9130    3.4760 hc        1 MOL      0.008761
    102 N10         3.7090   -2.1160    0.0370 n         1 MOL     -0.010975
    103 C32         4.4190   -2.6000   -1.2010 c3        1 MOL     -0.055953
    104 C33         5.6340   -1.6670   -1.6110 c         1 MOL      0.481608
    105 O16         6.3850   -1.9990   -2.5110 o         1 MOL     -0.541659
    106 C34         3.3840   -2.7690   -2.3000 c3        1 MOL     -0.281007
    107 C35         2.2910   -3.7140   -1.9260 c         1 MOL      0.758071
    108 O17         2.2840   -4.8630   -2.2670 o         1 MOL     -0.668029
    109 O18         1.2360   -3.2150   -1.4430 o         1 MOL     -0.668029
    110 H47         2.9730   -1.4230   -0.0440 hn        1 MOL      0.099053
    111 H48         4.7820   -3.6080   -1.0020 h1        1 MOL      0.110649
    112 H49         3.8910   -3.1880   -3.1760 hc        1 MOL      0.086214
    113 H50         2.9540   -1.7970   -2.5520 hc        1 MOL      0.086214
    114 N11         5.8390   -0.5580   -0.9410 n         1 MOL     -0.481456
    115 C36         7.0360    0.3150   -1.0900 c3        1 MOL      0.276676
    116 C37         6.8140    1.7460   -0.5220 c         1 MOL      0.360986
    117 O19         6.1440    1.8360    0.5520 o         1 MOL     -0.450645
    118 C38         8.1210   -0.2990   -0.2380 c3        1 MOL     -0.254958
    119 C39         9.4630    0.4670   -0.2290 ca        1 MOL      0.000420
    120 C40         9.7090    1.3320    0.7820 ca        1 MOL     -0.084622
    121 C41        10.4010    0.4190   -1.2860 ca        1 MOL     -0.084622
    122 C42        10.9010    2.0940    0.7650 ca        1 MOL     -0.140518
    123 C43        11.5750    1.1730   -1.3710 ca        1 MOL     -0.140518
    124 C44        11.8240    2.0340   -0.3030 ca        1 MOL     -0.101899
    125 H51         5.1590   -0.3810   -0.2250 hn        1 MOL      0.284496
    126 H52         7.3040    0.3460   -2.1490 h1        1 MOL      0.043164
    127 H53         8.4020   -1.3020   -0.5580 hc        1 MOL      0.125071
    128 H54         7.7940   -0.4950    0.7780 hc        1 MOL      0.125071
    129 H55         9.0110    1.3920    1.5930 ha        1 MOL      0.095563
    130 H56        10.1480   -0.2760   -2.0720 ha        1 MOL      0.095563
    131 H57        11.0770    2.7880    1.5640 ha        1 MOL      0.114261
    132 H58        12.1850    1.1410   -2.2640 ha        1 MOL      0.114261
    133 H59        12.7420    2.5900   -0.2240 ha        1 MOL      0.100304
    134 N12         7.1360    2.8790   -1.2730 n         1 MOL     -0.326154
    135 C45         6.9930    4.1600   -0.6540 c3        1 MOL      0.069481
    136 C46         5.5890    4.7410   -0.3980 c         1 MOL      0.462553
    137 O20         5.4930    5.9660   -0.2950 o         1 MOL     -0.549336
    138 C47         7.9520    5.0220   -1.4310 c3        1 MOL      0.249524
    139 C48         8.8180    4.1770   -2.2900 c3        1 MOL     -0.242928
    140 C49         7.8360    3.0530   -2.5060 c3        1 MOL      0.114070
    141 H60         7.4670    4.0420    0.3110 h1        1 MOL      0.068386
    142 H61         7.4670    5.8750   -1.9040 hc        1 MOL     -0.043027
    143 H62         8.5490    5.5360   -0.6760 hc        1 MOL     -0.043027
    144 H63         8.9940    4.6730   -3.2410 hc        1 MOL      0.067550
    145 H64         9.6820    3.8100   -1.7370 hc        1 MOL      0.067550
    146 H65         7.1910    3.2550   -3.3650 h1        1 MOL      0.038706
    147 H66         8.3550    2.1060   -2.6760 h1        1 MOL      0.038706
    148 N13         4.5040    3.9700   -0.2720 n         1 MOL     -0.284887
    149 C50         3.1340    4.4180    0.0470 c3        1 MOL     -0.253519
    150 C51         3.0060    5.0010    1.4530 c         1 MOL      0.501527
    151 O21         1.9040    5.5380    1.7410 o         1 MOL     -0.519877
    152 C52         2.1030    3.2280   -0.2160 c3        1 MOL     -0.014009
    153 C53         2.1870    2.0330    0.7970 c3        1 MOL     -0.119078
    154 C54         1.3200    0.9190    0.3450 c         1 MOL      0.567850
    155 O22         1.8040   -0.1500   -0.1620 o         1 MOL     -0.625988
    156 O23         0.0880    1.1100    0.2440 o         1 MOL     -0.625988
    157 H67         4.6560    2.9890   -0.0640 hn        1 MOL      0.184212
    158 H68         2.7790    5.2310   -0.5870 h1        1 MOL      0.164202
    159 H69         2.2650    2.8790   -1.2350 hc        1 MOL      0.071468
    160 H70         1.0800    3.6210   -0.1600 hc        1 MOL      0.071468
    161 H71         1.9230    2.5180    1.7310 hc        1 MOL      0.068432
    162 H72         3.1850    1.6140    0.6680 hc        1 MOL      0.068432
    163 N14         4.0230    4.8440    2.2730 n         1 MOL     -0.155810
    164 C55         3.9520    5.1610    3.6860 c3        1 MOL     -0.339699
    165 H73         3.8120    6.2360    3.8100 h1        1 MOL      0.128334
    166 H74         3.1130    4.6310    4.1360 h1        1 MOL      0.128334
    167 H75         4.8770    4.8580    4.1740 h1        1 MOL      0.128334
    168 H76         4.8560    4.3690    1.9510 hn        1 MOL      0.197889
    169 Ca1        -0.4470   -1.2550   -0.8370 Ca        1 MOL      1.727008
    170 O24         0.8660   -0.7340   -3.1220 oh        1 MOL     -0.879203
    171 H77         0.7060   -1.3130   -3.8700 ho        1 MOL      0.416125
    172 H78         0.5890    0.1370   -3.4260 ho        1 MOL      0.416125
    173 O25        -2.4800   -1.1110    1.0610 oh        1 MOL     -0.879203
    174 H79        -3.3560   -1.4910    1.1440 ho        1 MOL      0.416125
    175 H80        -2.5380   -0.2840    1.5380 ho        1 MOL      0.416125
@<TRIPOS>BOND
     1    1    2 1   
     2    1    4 1   
     3    1    5 1   
     4    1    6 1   
     5    2    3 2   
     6    2    7 1   
     7    7    8 1   
     8    7   15 1   
     9    8    9 1   
    10    8   11 1   
    11    8   16 1   
    12    9   10 2   
    13    9   19 1   
    14   11   12 1   
    15   11   17 1   
    16   11   18 1   
    17   12   13 1   
    18   12   14 1   
    19   19   20 1   
    20   19   24 1   
    21   20   21 1   
    22   20   23 1   
    23   20   25 1   
    24   21   22 2   
    25   21   29 1   
    26   23   26 1   
    27   23   27 1   
    28   23   28 1   
    29   29   30 1   
    30   29   37 1   
    31   30   31 1   
    32   30   33 1   
    33   30   38 1   
    34   31   32 2   
    35   31   41 1   
    36   33   34 1   
    37   33   39 1   
    38   33   40 1   
    39   34   35 1   
    40   34   36 1   
    41   41   42 1   
    42   41   45 1   
    43   42   43 1   
    44   42   46 1   
    45   42   47 1   
    46   43   44 2   
    47   43   48 1   
    48   48   49 1   
    49   48   56 1   
    50   49   50 1   
    51   49   52 1   
    52   49   57 1   
    53   50   51 2   
    54   50   62 1   
    55   52   53 1   
    56   52   58 1   
    57   52   59 1   
    58   53   54 1   
    59   53   55 2   
    60   54   60 1   
    61   54   61 1   
    62   62   63 1   
    63   62   66 1   
    64   63   64 1   
    65   63   67 1   
    66   63   68 1   
    67   64   65 2   
    68   64   69 1   
    69   69   70 1   
    70   69   76 1   
    71   70   71 1   
    72   70   73 1   
    73   70   77 1   
    74   71   72 2   
    75   71   83 1   
    76   73   74 1   
    77   73   75 1   
    78   73   78 1   
    79   74   80 1   
    80   74   81 1   
    81   74   82 1   
    82   75   79 1   
    83   83   84 1   
    84   83   91 1   
    85   84   85 1   
    86   84   87 1   
    87   84   92 1   
    88   85   86 2   
    89   85  102 1   
    90   87   88 1   
    91   87   89 1   
    92   87   93 1   
    93   88   90 1   
    94   88   94 1   
    95   88   95 1   
    96   89   96 1   
    97   89   97 1   
    98   89   98 1   
    99   90   99 1   
   100   90  100 1   
   101   90  101 1   
   102  102  103 1   
   103  102  110 1   
   104  103  104 1   
   105  103  106 1   
   106  103  111 1   
   107  104  105 2   
   108  104  114 1   
   109  106  107 1   
   110  106  112 1   
   111  106  113 1   
   112  107  108 1   
   113  107  109 1   
   114  114  115 1   
   115  114  125 1   
   116  115  116 1   
   117  115  118 1   
   118  115  126 1   
   119  116  117 2   
   120  116  134 1   
   121  118  119 1   
   122  118  127 1   
   123  118  128 1   
   124  119  120 ar  
   125  119  121 ar  
   126  120  122 ar  
   127  120  129 1   
   128  121  123 ar  
   129  121  130 1   
   130  122  124 ar  
   131  122  131 1   
   132  123  124 ar  
   133  123  132 1   
   134  124  133 1   
   135  134  135 1   
   136  134  140 1   
   137  135  136 1   
   138  135  138 1   
   139  135  141 1   
   140  136  137 2   
   141  136  148 1   
   142  138  139 1   
   143  138  142 1   
   144  138  143 1   
   145  139  140 1   
   146  139  144 1   
   147  139  145 1   
   148  140  146 1   
   149  140  147 1   
   150  148  149 1   
   151  148  157 1   
   152  149  150 1   
   153  149  152 1   
   154  149  158 1   
   155  150  151 2   
   156  150  163 1   
   157  152  153 1   
   158  152  159 1   
   159  152  160 1   
   160  153  154 1   
   161  153  161 1   
   162  153  162 1   
   163  154  155 1   
   164  154  156 1   
   165  163  164 1   
   166  163  168 1   
   167  164  165 1   
   168  164  166 1   
   169  164  167 1   
   170  170  171 1   
   171  170  172 1   
   172  173  174 1   
   173  173  175 1   
@<TRIPOS>SUBSTRUCTURE
     1 MOL         1 TEMP              0 ****  ****    0 ROOT
