@<TRIPOS>MOLECULE
MOL
  192   187     1     0     0
SMALL
resp


@<TRIPOS>ATOM
      1 C1         -2.5690   -7.6400    3.8230 c3        1 MOL     -0.287161
      2 C2         -2.7220   -7.0130    2.4400 c         1 MOL      0.626114
      3 O1         -2.5740   -7.6930    1.4370 o         1 MOL     -0.542451
      4 H1         -1.5210   -7.6040    4.1230 hc        1 MOL      0.077387
      5 H2         -3.1710   -7.0850    4.5430 hc        1 MOL      0.077387
      6 H3         -2.9020   -8.6760    3.7910 hc        1 MOL      0.077387
      7 N1         -2.7970   -5.6450    2.4930 n         1 MOL     -0.582050
      8 C3         -3.0770   -4.7670    1.3880 c3        1 MOL      0.063197
      9 C4         -1.7520   -4.5130    0.6510 c         1 MOL      0.402911
     10 O2         -1.7220   -4.3810   -0.5840 o         1 MOL     -0.293382
     11 C5         -3.7180   -3.4240    1.9090 c3        1 MOL     -0.091650
     12 C6         -2.9950   -2.6910    3.0320 c         1 MOL      0.674466
     13 O3         -3.0320   -1.4730    2.9590 o         1 MOL     -0.685208
     14 O4         -2.2880   -3.3290    3.8390 o         1 MOL     -0.685208
     15 H4         -2.5660   -5.2420    3.3900 hn        1 MOL      0.296124
     16 H5         -3.8250   -5.2030    0.7300 h1        1 MOL      0.095312
     17 H6         -4.6730   -3.7230    2.3480 hc        1 MOL      0.029972
     18 H7         -3.9940   -2.8350    1.0380 hc        1 MOL      0.029972
     19 N2         -0.6010   -4.4070    1.3680 n         1 MOL     -0.392434
     20 C7          0.7370   -3.8540    0.9480 c3        1 MOL      0.024543
     21 C8          1.4290   -4.6520   -0.1800 c         1 MOL      0.433174
     22 O5          1.4190   -5.8860   -0.0460 o         1 MOL     -0.510642
     23 C9          1.6710   -3.8610    2.1600 c3        1 MOL     -0.260336
     24 C10         1.1650   -2.9820    3.3660 c3        1 MOL     -0.091032
     25 C11         0.7460   -1.5890    3.0060 c3        1 MOL      0.181358
     26 C12         0.3240   -0.8300    4.3260 c3        1 MOL      0.071635
     27 N3         -1.1170   -0.9940    4.6100 n4        1 MOL     -0.217030
     28 H8         -0.6750   -4.5590    2.3620 hn        1 MOL      0.309384
     29 H9          0.6850   -2.8560    0.5110 h1        1 MOL      0.082909
     30 H10         2.6810   -3.6160    1.8270 hc        1 MOL      0.131925
     31 H11         1.7300   -4.8990    2.5000 hc        1 MOL      0.131925
     32 H12         1.8510   -2.9790    4.2090 hc        1 MOL      0.036961
     33 H13         0.2630   -3.4370    3.7710 hc        1 MOL      0.036961
     34 H14        -0.1340   -1.5990    2.3600 hc        1 MOL     -0.009236
     35 H15         1.5240   -1.0710    2.4330 hc        1 MOL     -0.009236
     36 H16         0.5770    0.2280    4.3740 hx        1 MOL      0.002704
     37 H17         0.8870   -1.3180    5.1160 hx        1 MOL      0.002704
     38 H18        -1.6540   -0.6850    3.8150 hn        1 MOL      0.261055
     39 H19        -1.3510   -1.9730    4.7050 hn        1 MOL      0.261055
     40 H20        -1.4930   -0.5290    5.4330 hn        1 MOL      0.261055
     41 N4          2.0040   -3.9790   -1.2340 n         1 MOL     -0.480188
     42 C13         1.9910   -2.5220   -1.7190 c3        1 MOL      0.221883
     43 C14         2.3590   -1.4630   -0.5920 c         1 MOL      0.476938
     44 O6          1.6180   -0.5250   -0.2610 o         1 MOL     -0.555461
     45 C15         0.6740   -2.1130   -2.4130 c3        1 MOL     -0.066238
     46 C16         0.2420   -3.0050   -3.6560 c         1 MOL      0.637198
     47 O7         -0.9610   -3.1170   -3.9310 o         1 MOL     -0.679434
     48 O8          1.0840   -3.5660   -4.3970 o         1 MOL     -0.679434
     49 H21         2.4430   -4.6450   -1.8480 hn        1 MOL      0.328634
     50 H22         2.7030   -2.3470   -2.5260 h1        1 MOL      0.017978
     51 H23         0.9260   -1.0930   -2.7230 hc        1 MOL      0.008727
     52 H24        -0.1140   -2.1130   -1.6530 hc        1 MOL      0.008727
     53 N5          3.5970   -1.6330   -0.0510 n         1 MOL     -0.281866
     54 C17         4.7690   -2.2980   -0.6340 c3        1 MOL     -0.064934
     55 C18         5.5820   -3.0700    0.4180 c         1 MOL      0.487544
     56 O9          4.9950   -3.5640    1.3770 o         1 MOL     -0.569872
     57 H25         3.7600   -0.9820    0.7020 hn        1 MOL      0.199154
     58 H26         5.4580   -1.5790   -1.0760 h1        1 MOL      0.056152
     59 H27         4.5310   -3.0650   -1.3690 h1        1 MOL      0.056152
     60 N6          6.8960   -3.1540    0.2920 n         1 MOL     -0.224931
     61 C19         7.7280   -2.6360   -0.7820 c3        1 MOL     -0.152166
     62 C20         8.0040   -1.1420   -0.7290 c         1 MOL      0.476973
     63 O10         8.6110   -0.6390   -1.6580 o         1 MOL     -0.487127
     64 C21         9.0830   -3.3990   -0.8600 c3        1 MOL     -0.288987
     65 C22         9.6720   -3.5080    0.5220 c         1 MOL      0.699978
     66 O11         9.6370   -4.5960    1.1650 o         1 MOL     -0.643547
     67 O12        10.1930   -2.4720    1.0920 o         1 MOL     -0.643547
     68 H28         7.4770   -3.6340    0.9720 hn        1 MOL      0.230977
     69 H29         7.1560   -2.8990   -1.6700 h1        1 MOL      0.127051
     70 H30         9.8030   -2.9390   -1.5300 hc        1 MOL      0.107074
     71 H31         8.8540   -4.4040   -1.2130 hc        1 MOL      0.107074
     72 N7          7.6950   -0.4210    0.3960 n         1 MOL     -0.344213
     73 C23         8.3460    0.9040    0.6750 c3        1 MOL      0.001818
     74 C24         7.5760    2.1140    0.0890 c         1 MOL      0.512580
     75 O13         6.6140    1.8660   -0.6610 o         1 MOL     -0.460816
     76 H32         7.2380   -0.9270    1.1380 hn        1 MOL      0.261912
     77 H33         9.3310    0.9920    0.2230 h1        1 MOL      0.071672
     78 H34         8.4680    1.0970    1.7460 h1        1 MOL      0.071672
     79 N8          7.9550    3.3290    0.5090 n         1 MOL     -0.422465
     80 C25         7.4420    4.6010   -0.0740 c3        1 MOL     -0.190743
     81 C26         5.8810    4.6580   -0.2640 c         1 MOL      0.562409
     82 O14         5.3340    5.3060   -1.1880 o         1 MOL     -0.450889
     83 C27         8.3090    5.1250   -1.2480 c3        1 MOL      0.375100
     84 C28         8.1600    4.3180   -2.5300 c3        1 MOL     -0.270412
     85 O15         9.6500    4.8560   -0.9260 oh        1 MOL     -0.577653
     86 H35         8.7700    3.4100    1.0980 hn        1 MOL      0.290729
     87 H36         7.7240    5.3400    0.6750 h1        1 MOL      0.098188
     88 H37         8.1960    6.1700   -1.5000 h1        1 MOL     -0.001137
     89 H38         9.7810    5.3540   -0.1210 ho        1 MOL      0.352139
     90 H39         7.1430    4.5100   -2.8860 hc        1 MOL      0.085647
     91 H40         8.8600    4.7170   -3.2460 hc        1 MOL      0.085647
     92 H41         8.3470    3.2440   -2.4640 hc        1 MOL      0.085647
     93 N9          5.0220    4.0590    0.6350 n         1 MOL     -0.503094
     94 C29         3.6260    3.8430    0.3720 c3        1 MOL     -0.183338
     95 C30         2.7460    5.0540    0.1850 c         1 MOL      0.554146
     96 O16         3.0710    6.1820    0.5310 o         1 MOL     -0.493795
     97 C31         2.9460    2.8790    1.3680 c3        1 MOL      0.047854
     98 C32         2.7320    3.4710    2.7780 c3        1 MOL     -0.076112
     99 C33         3.7380    1.5500    1.4020 c3        1 MOL      0.033033
    100 C34         2.2470    2.5420    3.9160 c3        1 MOL     -0.106975
    101 H42         5.4370    3.5360    1.3940 hn        1 MOL      0.299026
    102 H43         3.5920    3.4330   -0.6380 h1        1 MOL      0.168642
    103 H44         1.9620    2.6530    0.9670 hc        1 MOL      0.004080
    104 H45         2.0640    4.3090    2.6580 hc        1 MOL      0.048729
    105 H46         3.6370    3.8810    3.2310 hc        1 MOL      0.048729
    106 H47         4.0630    1.3050    0.3880 hc        1 MOL     -0.010457
    107 H48         4.6510    1.6620    1.9810 hc        1 MOL     -0.010457
    108 H49         3.0900    0.7690    1.8010 hc        1 MOL     -0.010457
    109 H50         1.2530    2.1480    3.7000 hc        1 MOL      0.034143
    110 H51         2.8180    1.6080    3.9910 hc        1 MOL      0.034143
    111 H52         2.3010    3.0470    4.8790 hc        1 MOL      0.034143
    112 N10         1.6110    4.8770   -0.4850 n         1 MOL     -0.297431
    113 C35         0.6470    5.9590   -0.7040 c3        1 MOL     -0.025892
    114 C36        -0.7870    5.6310   -0.1350 c         1 MOL      0.584825
    115 O17        -1.5290    6.5210    0.2300 o         1 MOL     -0.549627
    116 C37         0.5070    6.3710   -2.1780 c3        1 MOL      0.427468
    117 C38         0.1220    5.3070   -3.1640 c3        1 MOL     -0.425077
    118 O18         1.6760    7.0490   -2.5940 oh        1 MOL     -0.591783
    119 H53         1.5090    4.0170   -1.0180 hn        1 MOL      0.215581
    120 H54         0.9600    6.8590   -0.1690 h1        1 MOL      0.073573
    121 H55        -0.2730    7.1400   -2.1550 h1        1 MOL     -0.025075
    122 H56         1.3700    7.8420   -3.0310 ho        1 MOL      0.376169
    123 H57        -0.7990    4.7570   -2.9630 hc        1 MOL      0.107329
    124 H58        -0.0470    5.7960   -4.1240 hc        1 MOL      0.107329
    125 H59         0.9960    4.6520   -3.1940 hc        1 MOL      0.107329
    126 N11        -1.2050    4.3780   -0.0920 n         1 MOL     -0.737329
    127 C39        -2.5260    3.7990    0.2910 c3        1 MOL      0.227153
    128 C40        -3.7570    4.2650   -0.4970 c         1 MOL      0.525851
    129 O19        -3.7220    5.3160   -1.0760 o         1 MOL     -0.466092
    130 C41        -2.8040    3.9840    1.8230 c3        1 MOL      0.501358
    131 C42        -1.5610    3.4240    2.6190 c3        1 MOL     -0.365145
    132 O20        -3.7890    3.1090    2.2800 oh        1 MOL     -0.641966
    133 H60        -0.5500    3.7170   -0.4890 hn        1 MOL      0.341793
    134 H61        -2.4400    2.7250    0.1120 h1        1 MOL      0.008248
    135 H62        -3.0550    5.0130    2.0710 h1        1 MOL      0.043390
    136 H63        -3.5790    2.2270    1.9790 ho        1 MOL      0.378979
    137 H64        -1.2440    2.4200    2.3510 hc        1 MOL      0.073855
    138 H65        -0.7140    4.0840    2.4770 hc        1 MOL      0.073855
    139 H66        -1.7820    3.4280    3.6860 hc        1 MOL      0.073855
    140 N12        -4.8500    3.5210   -0.4650 n         1 MOL     -0.566218
    141 C43        -6.2250    3.8990   -0.9180 c3        1 MOL      0.035659
    142 C44        -7.0290    2.7270   -1.4550 c         1 MOL      0.562492
    143 O21        -8.2610    2.9040   -1.6350 o         1 MOL     -0.555798
    144 C45        -6.9940    4.7570    0.1420 c3        1 MOL     -0.034309
    145 C46        -7.2870    4.0200    1.4710 c3        1 MOL      0.200008
    146 C47        -8.0980    4.8110    2.4860 c3        1 MOL     -0.037505
    147 C48        -9.5590    4.9840    1.9470 c3        1 MOL     -0.002146
    148 N13       -10.2070    6.2560    2.3340 n4        1 MOL     -0.230151
    149 H67        -4.6880    2.6940    0.0810 hn        1 MOL      0.266941
    150 H68        -6.1400    4.4960   -1.8290 h1        1 MOL      0.104972
    151 H69        -7.9520    5.0230   -0.2990 hc        1 MOL      0.008683
    152 H70        -6.3370    5.6120    0.3100 hc        1 MOL      0.008683
    153 H71        -6.3110    3.8550    1.9450 hc        1 MOL     -0.035003
    154 H72        -7.7650    3.0730    1.2360 hc        1 MOL     -0.035003
    155 H73        -7.6370    5.7710    2.7190 hc        1 MOL      0.025970
    156 H74        -8.1720    4.2760    3.4320 hc        1 MOL      0.025970
    157 H75       -10.1920    4.1650    2.2990 hx        1 MOL      0.093467
    158 H76        -9.6480    4.9570    0.8530 hx        1 MOL      0.093467
    159 H77       -10.1520    6.3550    3.3410 hn        1 MOL      0.241621
    160 H78        -9.7120    7.0370    1.9310 hn        1 MOL      0.241621
    161 H79       -11.2090    6.3200    2.1990 hn        1 MOL      0.241621
    162 N14        -6.4890    1.5120   -1.6580 n         1 MOL     -0.295515
    163 C49        -7.1280    0.2270   -2.0400 c3        1 MOL     -0.338088
    164 C50        -8.3010   -0.1660   -0.9970 c         1 MOL      0.537917
    165 O22        -8.2500    0.2630    0.1640 o         1 MOL     -0.507195
    166 C51        -6.1310   -0.8800   -2.4510 c3        1 MOL      0.017859
    167 C52        -5.3960   -1.4260   -1.1890 c3        1 MOL     -0.264913
    168 C53        -4.5180   -2.5710   -1.5890 c         1 MOL      0.950240
    169 O23        -4.9920   -3.7000   -1.7890 o         1 MOL     -0.854980
    170 O24        -3.2960   -2.3190   -1.8370 o         1 MOL     -0.854980
    171 H80        -5.4900    1.4370   -1.5330 hn        1 MOL      0.229929
    172 H81        -7.6540    0.4000   -2.9730 h1        1 MOL      0.128350
    173 H82        -5.3680   -0.5220   -3.1420 hc        1 MOL      0.079195
    174 H83        -6.7740   -1.6650   -2.8650 hc        1 MOL      0.079195
    175 H84        -6.0980   -1.8350   -0.4720 hc        1 MOL      0.086021
    176 H85        -4.7750   -0.6460   -0.7550 hc        1 MOL      0.086021
    177 N15        -9.2710   -0.9570   -1.3990 n         1 MOL     -0.296131
    178 C54       -10.3830   -1.6320   -0.6720 c3        1 MOL     -0.276410
    179 H86       -11.2710   -1.6530   -1.3040 h1        1 MOL      0.134222
    180 H87       -10.0890   -2.6530   -0.4250 h1        1 MOL      0.134222
    181 H88       -10.6020   -1.0840    0.2450 h1        1 MOL      0.134222
    182 H89        -9.1740   -1.1560   -2.3840 hn        1 MOL      0.256720
    183 Ca1        -2.7710   -4.5850   -3.0770 Ca        1 MOL      1.783420
    184 O25        -0.4970   -6.0190   -2.8910 oh        1 MOL     -1.025391
    185 H90         0.1630   -6.4280   -3.4500 ho        1 MOL      0.474578
    186 H91        -0.6980   -6.6950   -2.2370 ho        1 MOL      0.474578
    187 O26        -3.5970   -6.6350   -1.4420 oh        1 MOL     -1.025391
    188 H92        -4.3360   -6.5760   -0.8450 ho        1 MOL      0.474578
    189 H93        -3.4060   -7.5680   -1.5180 ho        1 MOL      0.474578
    190 O27        -4.2790   -3.1220   -4.7490 oh        1 MOL     -1.025391
    191 H94        -4.4920   -2.4110   -5.3470 ho        1 MOL      0.474578
    192 H95        -4.8540   -3.8360   -5.0060 ho        1 MOL      0.474578
@<TRIPOS>BOND
     1    1    2 1   
     2    1    4 1   
     3    1    5 1   
     4    1    6 1   
     5    2    3 2   
     6    2    7 1   
     7    7    8 1   
     8    7   15 1   
     9    8    9 1   
    10    8   11 1   
    11    8   16 1   
    12    9   10 2   
    13    9   19 1   
    14   11   12 1   
    15   11   17 1   
    16   11   18 1   
    17   12   13 1   
    18   12   14 1   
    19   19   20 1   
    20   19   28 1   
    21   20   21 1   
    22   20   23 1   
    23   20   29 1   
    24   21   22 2   
    25   21   41 1   
    26   23   24 1   
    27   23   30 1   
    28   23   31 1   
    29   24   25 1   
    30   24   32 1   
    31   24   33 1   
    32   25   26 1   
    33   25   34 1   
    34   25   35 1   
    35   26   27 1   
    36   26   36 1   
    37   26   37 1   
    38   27   38 1   
    39   27   39 1   
    40   27   40 1   
    41   41   42 1   
    42   41   49 1   
    43   42   43 1   
    44   42   45 1   
    45   42   50 1   
    46   43   44 2   
    47   43   53 1   
    48   45   46 1   
    49   45   51 1   
    50   45   52 1   
    51   46   47 1   
    52   46   48 1   
    53   53   54 1   
    54   53   57 1   
    55   54   55 1   
    56   54   58 1   
    57   54   59 1   
    58   55   56 2   
    59   55   60 1   
    60   60   61 1   
    61   60   68 1   
    62   61   62 1   
    63   61   64 1   
    64   61   69 1   
    65   62   63 2   
    66   62   72 1   
    67   64   65 1   
    68   64   70 1   
    69   64   71 1   
    70   65   66 1   
    71   65   67 1   
    72   72   73 1   
    73   72   76 1   
    74   73   74 1   
    75   73   77 1   
    76   73   78 1   
    77   74   75 2   
    78   74   79 1   
    79   79   80 1   
    80   79   86 1   
    81   80   81 1   
    82   80   83 1   
    83   80   87 1   
    84   81   82 2   
    85   81   93 1   
    86   83   84 1   
    87   83   85 1   
    88   83   88 1   
    89   84   90 1   
    90   84   91 1   
    91   84   92 1   
    92   85   89 1   
    93   93   94 1   
    94   93  101 1   
    95   94   95 1   
    96   94   97 1   
    97   94  102 1   
    98   95   96 2   
    99   95  112 1   
   100   97   98 1   
   101   97   99 1   
   102   97  103 1   
   103   98  100 1   
   104   98  104 1   
   105   98  105 1   
   106   99  106 1   
   107   99  107 1   
   108   99  108 1   
   109  100  109 1   
   110  100  110 1   
   111  100  111 1   
   112  112  113 1   
   113  112  119 1   
   114  113  114 1   
   115  113  116 1   
   116  113  120 1   
   117  114  115 2   
   118  114  126 1   
   119  116  117 1   
   120  116  118 1   
   121  116  121 1   
   122  117  123 1   
   123  117  124 1   
   124  117  125 1   
   125  118  122 1   
   126  126  127 1   
   127  126  133 1   
   128  127  128 1   
   129  127  130 1   
   130  127  134 1   
   131  128  129 2   
   132  128  140 1   
   133  130  131 1   
   134  130  132 1   
   135  130  135 1   
   136  131  137 1   
   137  131  138 1   
   138  131  139 1   
   139  132  136 1   
   140  140  141 1   
   141  140  149 1   
   142  141  142 1   
   143  141  144 1   
   144  141  150 1   
   145  142  143 2   
   146  142  162 1   
   147  144  145 1   
   148  144  151 1   
   149  144  152 1   
   150  145  146 1   
   151  145  153 1   
   152  145  154 1   
   153  146  147 1   
   154  146  155 1   
   155  146  156 1   
   156  147  148 1   
   157  147  157 1   
   158  147  158 1   
   159  148  159 1   
   160  148  160 1   
   161  148  161 1   
   162  162  163 1   
   163  162  171 1   
   164  163  164 1   
   165  163  166 1   
   166  163  172 1   
   167  164  165 2   
   168  164  177 1   
   169  166  167 1   
   170  166  173 1   
   171  166  174 1   
   172  167  168 1   
   173  167  175 1   
   174  167  176 1   
   175  168  169 1   
   176  168  170 1   
   177  177  178 1   
   178  177  182 1   
   179  178  179 1   
   180  178  180 1   
   181  178  181 1   
   182  184  185 1   
   183  184  186 1   
   184  187  188 1   
   185  187  189 1   
   186  190  191 1   
   187  190  192 1   
@<TRIPOS>SUBSTRUCTURE
     1 MOL         1 TEMP              0 ****  ****    0 ROOT
