@<TRIPOS>MOLECULE
MOL
  182   178     1     0     0
SMALL
resp


@<TRIPOS>ATOM
      1 C1         -0.1440   -3.3890    5.9500 c3        1 MOL     -0.381252
      2 C2          0.0980   -3.3640    4.3920 c         1 MOL      0.802276
      3 O1         -0.9020   -3.5100    3.6250 o         1 MOL     -0.589366
      4 H1         -0.8270   -2.5850    6.2240 hc        1 MOL      0.108681
      5 H2         -0.5780   -4.3480    6.2350 hc        1 MOL      0.108681
      6 H3          0.8050   -3.2510    6.4670 hc        1 MOL      0.108681
      7 N1          1.3850   -3.2440    4.0070 n         1 MOL     -0.641908
      8 C3          1.7690   -3.0820    2.5930 c3        1 MOL      0.089989
      9 C4          1.9420   -4.3750    1.7780 c         1 MOL      0.528919
     10 O2          2.1510   -5.4940    2.2590 o         1 MOL     -0.535684
     11 C5          2.9890   -2.3190    2.5370 c3        1 MOL     -0.212158
     12 C6          3.1990   -1.5640    1.2370 c         1 MOL      0.697429
     13 O3          3.6360   -0.3990    1.4680 o         1 MOL     -0.741521
     14 O4          3.0510   -2.0130    0.1020 o         1 MOL     -0.741521
     15 H4          1.9630   -2.8700    4.7440 hn        1 MOL      0.352934
     16 H5          1.1030   -2.4410    2.0230 h1        1 MOL     -0.054573
     17 H6          3.8490   -2.9700    2.6940 hc        1 MOL      0.111085
     18 H7          2.9540   -1.5750    3.3340 hc        1 MOL      0.111085
     19 N2          1.7120   -4.4000    0.4530 n         1 MOL     -0.329223
     20 C7          1.9160   -5.4560   -0.6180 c3        1 MOL     -0.013577
     21 C8          3.3070   -5.3970   -1.2250 c         1 MOL      0.583335
     22 O5          3.7800   -6.4040   -1.6980 o         1 MOL     -0.566610
     23 C9          0.7810   -5.2610   -1.6380 c3        1 MOL     -0.032825
     24 C10        -0.2230   -6.4290   -1.4780 c3        1 MOL      0.079055
     25 C11        -1.3660   -6.3590   -2.4740 c3        1 MOL     -0.020732
     26 C12        -2.4230   -7.4610   -2.3430 c3        1 MOL      0.104162
     27 N3         -3.3730   -7.2260   -3.4540 n4        1 MOL     -0.202552
     28 H8          1.4280   -3.5050    0.0910 hn        1 MOL      0.256141
     29 H9          1.7620   -6.3340   -0.0080 h1        1 MOL      0.083901
     30 H10         1.1820   -5.1530   -2.6430 hc        1 MOL     -0.008914
     31 H11         0.3700   -4.2740   -1.4190 hc        1 MOL     -0.008914
     32 H12        -0.7150   -6.3990   -0.5030 hc        1 MOL      0.017111
     33 H13         0.3060   -7.3730   -1.5970 hc        1 MOL      0.017111
     34 H14        -0.9790   -6.5280   -3.4820 hc        1 MOL      0.023796
     35 H15        -1.9040   -5.4300   -2.3540 hc        1 MOL      0.023796
     36 H16        -2.8420   -7.5440   -1.3420 hx        1 MOL      0.049756
     37 H17        -1.9660   -8.4280   -2.5570 hx        1 MOL      0.049756
     38 H18        -4.0340   -6.4850   -3.2400 hn        1 MOL      0.230920
     39 H19        -2.9720   -6.9730   -4.3480 hn        1 MOL      0.230920
     40 H20        -3.9850   -8.0340   -3.4670 hn        1 MOL      0.230920
     41 N4          3.9930   -4.2390   -1.2550 n         1 MOL     -0.420981
     42 C13         5.3240   -4.0060   -1.7730 c3        1 MOL      0.311786
     43 C14         6.3860   -3.6240   -0.7400 c         1 MOL      0.261781
     44 O6          7.5760   -3.8510   -0.9390 o         1 MOL     -0.479725
     45 C15         5.3390   -2.9850   -2.9200 c3        1 MOL     -0.450567
     46 C16         4.7180   -1.5940   -2.5990 c         1 MOL      0.980486
     47 O7          5.3180   -0.8920   -1.7660 o         1 MOL     -0.825774
     48 O8          3.6130   -1.2420   -3.0480 o         1 MOL     -0.825774
     49 H21         3.4520   -3.4700   -0.8930 hn        1 MOL      0.243967
     50 H22         5.6610   -4.9410   -2.2180 h1        1 MOL      0.068454
     51 H23         4.6470   -3.3500   -3.6900 hc        1 MOL      0.106408
     52 H24         6.3420   -2.7700   -3.2650 hc        1 MOL      0.106408
     53 N5          5.9880   -3.0660    0.3910 n         1 MOL     -0.054353
     54 C17         6.8750   -2.5550    1.4710 c3        1 MOL     -0.168130
     55 C18         7.4260   -1.1640    1.3480 c         1 MOL      0.648085
     56 O9          8.0480   -0.6860    2.2560 o         1 MOL     -0.604556
     57 H25         5.0220   -2.7840    0.3760 hn        1 MOL     -0.054659
     58 H26         7.7620   -3.1900    1.4150 h1        1 MOL      0.090720
     59 H27         6.4130   -2.6320    2.4550 h1        1 MOL      0.090720
     60 N6          7.1110   -0.4610    0.2780 n         1 MOL     -0.265358
     61 C19         7.6080    0.8880    0.1070 c3        1 MOL     -0.011795
     62 C20         6.5350    2.0210    0.1760 c         1 MOL      0.530414
     63 O10         5.3590    1.7520   -0.0430 o         1 MOL     -0.439932
     64 C21         8.4030    0.9730   -1.1570 c3        1 MOL     -0.193020
     65 C22         9.5280   -0.0770   -1.3260 c         1 MOL      0.519913
     66 N7         10.5300   -0.0620   -0.5290 n         1 MOL     -0.684184
     67 O11         9.4070   -1.0160   -2.1260 o         1 MOL     -0.517080
     68 H28         6.4140   -0.8150   -0.3710 hn        1 MOL      0.367801
     69 H29         8.3390    1.0720    0.9030 h1        1 MOL      0.041862
     70 H30         8.8420    1.9490   -1.3230 hc        1 MOL      0.059956
     71 H31         7.7360    0.7750   -2.0010 hc        1 MOL      0.059956
     72 H32        10.7170    0.6510    0.1660 hn        1 MOL      0.348645
     73 H33        11.2250   -0.7830   -0.6660 hn        1 MOL      0.348645
     74 N8          6.9190    3.3070    0.3730 n         1 MOL     -0.488608
     75 C23         6.0890    4.4760    0.1410 c3        1 MOL     -0.105569
     76 C24         4.8460    4.6940    0.9400 c         1 MOL      0.685543
     77 O12         4.8170    4.5400    2.1850 o         1 MOL     -0.517978
     78 H34         7.9090    3.5000    0.4260 hn        1 MOL      0.327731
     79 H35         5.7740    4.4180   -0.9020 h1        1 MOL      0.082187
     80 H36         6.7450    5.3400    0.2380 h1        1 MOL      0.082187
     81 N9          3.7980    5.1430    0.2140 n         1 MOL     -0.768130
     82 C25         2.3950    4.9340    0.7250 c3        1 MOL      0.536730
     83 C26         2.0160    3.4440    0.9730 c         1 MOL      0.299318
     84 O13         2.7200    2.4790    0.6620 o         1 MOL     -0.443028
     85 C27         1.3490    5.5100   -0.2310 c3        1 MOL     -0.075245
     86 C28         1.5020    6.9280   -0.6490 ca        1 MOL      0.078472
     87 C29         1.6170    7.2990   -2.0060 ca        1 MOL     -0.197402
     88 C30         1.3340    8.0080    0.2850 ca        1 MOL     -0.197402
     89 C31         1.6960    8.6420   -2.4080 ca        1 MOL     -0.202437
     90 C32         1.4030    9.3090   -0.0460 ca        1 MOL     -0.202437
     91 C33         1.4910    9.6620   -1.4590 ca        1 MOL      0.270746
     92 O14         1.6110   10.9320   -1.8170 oh        1 MOL     -0.425889
     93 H37         3.9410    5.2080   -0.7880 hn        1 MOL      0.313651
     94 H38         2.3240    5.4900    1.6600 h1        1 MOL     -0.001233
     95 H39         0.3660    5.4460    0.2320 hc        1 MOL     -0.005487
     96 H40         1.3830    4.9490   -1.1700 hc        1 MOL     -0.005487
     97 H41         1.8060    6.5760   -2.7940 ha        1 MOL      0.130743
     98 H42         1.0600    7.8000    1.3130 ha        1 MOL      0.130743
     99 H43         1.8900    8.8720   -3.4500 ha        1 MOL      0.147106
    100 H44         1.4640   10.1080    0.6890 ha        1 MOL      0.147106
    101 H45         1.5310   11.1160   -2.7470 ho        1 MOL      0.353208
    102 N10         0.8950    3.2310    1.6680 n         1 MOL     -0.497342
    103 C34         0.1940    1.9850    2.1060 c3        1 MOL      0.145315
    104 C35        -0.0620    0.8900    1.0260 c         1 MOL      0.192599
    105 O15         0.8480    0.3030    0.4160 o         1 MOL     -0.227044
    106 C36         0.8830    1.4030    3.3510 c3        1 MOL      0.064228
    107 C37         0.3160    0.0530    3.7470 c3        1 MOL     -0.174945
    108 C38         0.9050    2.4140    4.5450 c3        1 MOL     -0.141463
    109 C39        -1.0040    0.0050    4.4570 c3        1 MOL      0.005432
    110 H46         0.4190    4.0620    2.0130 hn        1 MOL      0.269090
    111 H47        -0.7590    2.3310    2.4910 h1        1 MOL      0.063303
    112 H48         1.9130    1.2690    3.0340 hc        1 MOL      0.102172
    113 H49         1.0030   -0.3750    4.4880 hc        1 MOL      0.037829
    114 H50         0.2730   -0.7030    2.9620 hc        1 MOL      0.037829
    115 H51         1.3690    3.3820    4.3410 hc        1 MOL      0.049745
    116 H52        -0.1320    2.6830    4.7630 hc        1 MOL      0.049745
    117 H53         1.3130    1.9780    5.4490 hc        1 MOL      0.049745
    118 H54        -1.8040    0.2530    3.7540 hc        1 MOL     -0.000252
    119 H55        -1.2160   -0.9890    4.8250 hc        1 MOL     -0.000252
    120 H56        -1.0570    0.7190    5.2690 hc        1 MOL     -0.000252
    121 N11        -1.3480    0.5330    0.7770 n         1 MOL     -0.351080
    122 C40        -1.8090   -0.5700   -0.1740 c3        1 MOL      0.026880
    123 C41        -3.3060   -0.5600   -0.7120 c         1 MOL      0.687835
    124 O16        -3.5510   -1.3340   -1.6530 o         1 MOL     -0.561473
    125 C42        -1.4820   -1.9730    0.4080 c3        1 MOL      0.173823
    126 O17        -2.1350   -2.0640    1.6890 oh        1 MOL     -0.627092
    127 H57        -2.0440    0.9720    1.3660 hn        1 MOL      0.241411
    128 H58        -1.1680   -0.6100   -1.0470 h1        1 MOL      0.014076
    129 H59        -0.4170   -2.0630    0.6070 h1        1 MOL      0.012212
    130 H60        -1.6900   -2.7820   -0.2890 h1        1 MOL      0.012212
    131 H61        -1.5590   -2.5190    2.3160 ho        1 MOL      0.436227
    132 N12        -4.1820    0.2710   -0.1230 n         1 MOL     -0.718110
    133 C43        -5.5860    0.1780   -0.3460 c3        1 MOL      0.296019
    134 C44        -6.0320    0.8320   -1.6350 c         1 MOL      0.559697
    135 O18        -5.2660    1.6560   -2.1660 o         1 MOL     -0.573797
    136 C45        -6.2980    0.6950    0.8920 c3        1 MOL     -0.261537
    137 H62        -3.8950    0.7660    0.7110 hn        1 MOL      0.381240
    138 H63        -5.9210   -0.8590   -0.4030 h1        1 MOL      0.043536
    139 H64        -7.3810    0.6210    0.7730 hc        1 MOL      0.080210
    140 H65        -6.0020    0.1170    1.7700 hc        1 MOL      0.080210
    141 H66        -5.9940    1.7180    1.1210 hc        1 MOL      0.080210
    142 N13        -7.2050    0.6540   -2.2050 n         1 MOL     -0.554312
    143 C46        -8.3750   -0.1100   -1.8400 c3        1 MOL      0.250032
    144 C47        -9.7040    0.5360   -2.4020 c         1 MOL      0.339094
    145 O19        -9.6400    1.0850   -3.5000 o         1 MOL     -0.500788
    146 C48        -8.2090   -1.5060   -2.4740 c3        1 MOL     -0.244533
    147 H67        -7.3080    1.2340   -3.0340 hn        1 MOL      0.318883
    148 H68        -8.4930   -0.2790   -0.7660 h1        1 MOL     -0.000852
    149 H69        -9.1460   -2.0210   -2.2520 hc        1 MOL      0.073942
    150 H70        -8.0820   -1.4310   -3.5530 hc        1 MOL      0.073942
    151 H71        -7.3250   -2.0610   -2.1520 hc        1 MOL      0.073942
    152 N14       -10.8590    0.3990   -1.7440 n         1 MOL     -0.299668
    153 C49       -11.1070   -0.0120   -0.3080 c3        1 MOL     -0.197983
    154 C50       -10.4270    1.0350    0.5680 c         1 MOL      0.470268
    155 O20        -9.9510    0.6730    1.5960 o         1 MOL     -0.509182
    156 C51       -12.6270    0.0330   -0.0980 c3        1 MOL     -0.041557
    157 C52       -13.0810   -0.3720    1.2700 c3        1 MOL     -0.169900
    158 C53       -14.5990   -0.4940    1.2530 c         1 MOL      0.683772
    159 O21       -15.1430   -1.6130    0.9680 o         1 MOL     -0.655558
    160 O22       -15.2440    0.5040    1.6110 o         1 MOL     -0.655558
    161 H72       -11.6490    0.8810   -2.1690 hn        1 MOL      0.248754
    162 H73       -10.7330   -1.0340   -0.2340 h1        1 MOL      0.170004
    163 H74       -13.1200   -0.6790   -0.7690 hc        1 MOL      0.049197
    164 H75       -13.0110    1.0470   -0.2640 hc        1 MOL      0.049197
    165 H76       -12.7720    0.3680    2.0060 hc        1 MOL      0.051434
    166 H77       -12.6400   -1.3180    1.5900 hc        1 MOL      0.051434
    167 N15       -10.3120    2.2990    0.1110 n         1 MOL     -0.205129
    168 C54        -9.6650    3.3240    0.8030 c3        1 MOL     -0.104549
    169 H78       -10.3950    4.0740    1.1070 h1        1 MOL      0.063602
    170 H79        -9.1760    2.9150    1.6870 h1        1 MOL      0.063602
    171 H80        -8.9190    3.7870    0.1570 h1        1 MOL      0.063602
    172 H81       -10.8620    2.5400   -0.7040 hn        1 MOL      0.246193
    173 Ca1         2.9890    0.4380   -0.9980 Ca        1 MOL      1.713648
    174 O23         1.1460    2.1100   -1.8930 oh        1 MOL     -0.819924
    175 H82         1.0590    2.2920   -2.8300 ho        1 MOL      0.404706
    176 H83         0.4560    2.6190   -1.4870 ho        1 MOL      0.404706
    177 O24         1.0060   -0.9850   -2.4130 oh        1 MOL     -0.819924
    178 H84         0.1280   -1.2910   -2.6630 ho        1 MOL      0.404706
    179 H85         1.5990   -1.5030   -2.9540 ho        1 MOL      0.404706
    180 O25         4.0340    2.1840   -2.9340 oh        1 MOL     -0.819924
    181 H86         3.7250    3.0130   -3.2900 ho        1 MOL      0.404706
    182 H87         4.3810    1.7090   -3.6960 ho        1 MOL      0.404706
@<TRIPOS>BOND
     1    1    2 1   
     2    1    4 1   
     3    1    5 1   
     4    1    6 1   
     5    2    3 2   
     6    2    7 1   
     7    7    8 1   
     8    7   15 1   
     9    8    9 1   
    10    8   11 1   
    11    8   16 1   
    12    9   10 2   
    13    9   19 1   
    14   11   12 1   
    15   11   17 1   
    16   11   18 1   
    17   12   13 1   
    18   12   14 1   
    19   19   20 1   
    20   19   28 1   
    21   20   21 1   
    22   20   23 1   
    23   20   29 1   
    24   21   22 2   
    25   21   41 1   
    26   23   24 1   
    27   23   30 1   
    28   23   31 1   
    29   24   25 1   
    30   24   32 1   
    31   24   33 1   
    32   25   26 1   
    33   25   34 1   
    34   25   35 1   
    35   26   27 1   
    36   26   36 1   
    37   26   37 1   
    38   27   38 1   
    39   27   39 1   
    40   27   40 1   
    41   41   42 1   
    42   41   49 1   
    43   42   43 1   
    44   42   45 1   
    45   42   50 1   
    46   43   44 2   
    47   43   53 1   
    48   45   46 1   
    49   45   51 1   
    50   45   52 1   
    51   46   47 1   
    52   46   48 1   
    53   53   54 1   
    54   53   57 1   
    55   54   55 1   
    56   54   58 1   
    57   54   59 1   
    58   55   56 2   
    59   55   60 1   
    60   60   61 1   
    61   60   68 1   
    62   61   62 1   
    63   61   64 1   
    64   61   69 1   
    65   62   63 2   
    66   62   74 1   
    67   64   65 1   
    68   64   70 1   
    69   64   71 1   
    70   65   66 1   
    71   65   67 2   
    72   66   72 1   
    73   66   73 1   
    74   74   75 1   
    75   74   78 1   
    76   75   76 1   
    77   75   79 1   
    78   75   80 1   
    79   76   77 2   
    80   76   81 1   
    81   81   82 1   
    82   81   93 1   
    83   82   83 1   
    84   82   85 1   
    85   82   94 1   
    86   83   84 2   
    87   83  102 1   
    88   85   86 1   
    89   85   95 1   
    90   85   96 1   
    91   86   87 ar  
    92   86   88 ar  
    93   87   89 ar  
    94   87   97 1   
    95   88   90 ar  
    96   88   98 1   
    97   89   91 ar  
    98   89   99 1   
    99   90   91 ar  
   100   90  100 1   
   101   91   92 1   
   102   92  101 1   
   103  102  103 1   
   104  102  110 1   
   105  103  104 1   
   106  103  106 1   
   107  103  111 1   
   108  104  105 2   
   109  104  121 1   
   110  106  107 1   
   111  106  108 1   
   112  106  112 1   
   113  107  109 1   
   114  107  113 1   
   115  107  114 1   
   116  108  115 1   
   117  108  116 1   
   118  108  117 1   
   119  109  118 1   
   120  109  119 1   
   121  109  120 1   
   122  121  122 1   
   123  121  127 1   
   124  122  123 1   
   125  122  125 1   
   126  122  128 1   
   127  123  124 2   
   128  123  132 1   
   129  125  126 1   
   130  125  129 1   
   131  125  130 1   
   132  126  131 1   
   133  132  133 1   
   134  132  137 1   
   135  133  134 1   
   136  133  136 1   
   137  133  138 1   
   138  134  135 2   
   139  134  142 1   
   140  136  139 1   
   141  136  140 1   
   142  136  141 1   
   143  142  143 1   
   144  142  147 1   
   145  143  144 1   
   146  143  146 1   
   147  143  148 1   
   148  144  145 2   
   149  144  152 1   
   150  146  149 1   
   151  146  150 1   
   152  146  151 1   
   153  152  153 1   
   154  152  161 1   
   155  153  154 1   
   156  153  156 1   
   157  153  162 1   
   158  154  155 2   
   159  154  167 1   
   160  156  157 1   
   161  156  163 1   
   162  156  164 1   
   163  157  158 1   
   164  157  165 1   
   165  157  166 1   
   166  158  159 1   
   167  158  160 1   
   168  167  168 1   
   169  167  172 1   
   170  168  169 1   
   171  168  170 1   
   172  168  171 1   
   173  174  175 1   
   174  174  176 1   
   175  177  178 1   
   176  177  179 1   
   177  180  181 1   
   178  180  182 1   
@<TRIPOS>SUBSTRUCTURE
     1 MOL         1 TEMP              0 ****  ****    0 ROOT
