@<TRIPOS>MOLECULE
MOL
  184   179     1     0     0
SMALL
resp


@<TRIPOS>ATOM
      1 C1        -11.4860   -6.2390    0.3980 c3        1 MOL     -0.323463
      2 C2        -10.6910   -5.1640    1.2610 c         1 MOL      0.763302
      3 O1        -10.2110   -5.5580    2.3370 o         1 MOL     -0.606819
      4 H1        -12.5520   -6.0120    0.4290 hc        1 MOL      0.075934
      5 H2        -11.1390   -6.2070   -0.6350 hc        1 MOL      0.075934
      6 H3        -11.3150   -7.2350    0.8080 hc        1 MOL      0.075934
      7 N1        -10.6610   -3.9030    0.9290 n         1 MOL     -0.701323
      8 C3        -11.0830   -3.3130   -0.3180 c3        1 MOL      0.278477
      9 C4        -11.3810   -1.7710   -0.1680 c         1 MOL      0.473317
     10 O2        -11.4120   -1.1960    0.9280 o         1 MOL     -0.416494
     11 C5         -9.9770   -3.6080   -1.4060 c3        1 MOL     -0.656755
     12 C6         -8.7070   -2.8030   -1.0020 c         1 MOL      0.917938
     13 O3         -7.9070   -3.2210   -0.1340 o         1 MOL     -0.724664
     14 O4         -8.5140   -1.7290   -1.5420 o         1 MOL     -0.724664
     15 H4        -10.3060   -3.3100    1.6620 hn        1 MOL      0.375370
     16 H5        -12.0620   -3.7180   -0.5830 h1        1 MOL      0.032475
     17 H6        -10.2780   -3.4640   -2.4420 hc        1 MOL      0.148114
     18 H7         -9.7860   -4.6800   -1.3250 hc        1 MOL      0.148114
     19 N2        -11.6170   -1.0630   -1.2580 n         1 MOL     -0.732239
     20 C7        -11.9160    0.3690   -1.2790 c3        1 MOL      0.339342
     21 C8        -10.8700    1.3330   -0.7800 c         1 MOL      0.215892
     22 O5        -11.2210    2.4970   -0.5680 o         1 MOL     -0.508924
     23 C9        -13.3780    0.6260   -0.8000 c3        1 MOL     -0.026047
     24 H8        -11.8840   -1.5790   -2.0880 hn        1 MOL      0.361608
     25 H9        -11.9730    0.4480   -2.3650 h1        1 MOL      0.010642
     26 H10       -13.6410    1.6740   -0.9020 hc        1 MOL      0.007589
     27 H11       -14.0660    0.1470   -1.5050 hc        1 MOL      0.007589
     28 H12       -13.5340    0.2930    0.2290 hc        1 MOL      0.007589
     29 N3         -9.6000    0.9430   -0.6540 n         1 MOL      0.007622
     30 C10        -8.4570    1.8700   -0.5170 c3        1 MOL     -0.015734
     31 C11        -7.4000    1.5940   -1.6290 c         1 MOL      0.300445
     32 O6         -7.0890    0.4840   -1.9990 o         1 MOL     -0.501871
     33 C12        -7.8740    1.9310    0.8800 c3        1 MOL      0.245916
     34 C13        -7.8570    0.5500    1.5300 c         1 MOL      0.462370
     35 O7         -8.7070    0.4220    2.4730 o         1 MOL     -0.641421
     36 O8         -7.1320   -0.2990    1.0280 o         1 MOL     -0.641421
     37 H13        -9.4260   -0.0350   -0.8230 hn        1 MOL      0.216406
     38 H14        -8.7950    2.8610   -0.8320 h1        1 MOL      0.010679
     39 H15        -8.3780    2.6890    1.4880 hc        1 MOL     -0.079122
     40 H16        -6.8380    2.2450    0.7060 hc        1 MOL     -0.079122
     41 N4         -6.8820    2.7080   -2.2130 n         1 MOL     -0.315715
     42 C14        -5.7360    2.6230   -3.1860 c3        1 MOL     -0.098438
     43 C15        -4.4010    3.1010   -2.6920 c         1 MOL      0.560434
     44 O9         -3.4080    3.0820   -3.4090 o         1 MOL     -0.538178
     45 H17        -7.0830    3.6530   -1.9300 hn        1 MOL      0.283406
     46 H18        -6.0250    3.2250   -4.0410 h1        1 MOL      0.090111
     47 H19        -5.5040    1.6340   -3.5890 h1        1 MOL      0.090111
     48 N5         -4.3890    3.6140   -1.4600 n         1 MOL     -0.548476
     49 C16        -3.3040    4.4690   -0.8610 c3        1 MOL      0.253373
     50 C17        -3.0740    3.9820    0.5500 c         1 MOL      0.412744
     51 O10        -3.9910    3.9430    1.3780 o         1 MOL     -0.483491
     52 C18        -3.6490    5.9710   -0.9970 c3        1 MOL     -0.147496
     53 C19        -3.8890    6.4770   -2.4120 c         1 MOL      0.566826
     54 N6         -2.9740    6.1660   -3.3110 n         1 MOL     -0.668627
     55 O11        -4.9650    6.9050   -2.7850 o         1 MOL     -0.543908
     56 H20        -5.2350    3.6460   -0.9050 hn        1 MOL      0.312378
     57 H21        -2.4340    4.1640   -1.4590 h1        1 MOL      0.032448
     58 H22        -2.6920    6.4530   -0.7790 hc        1 MOL      0.041303
     59 H23        -4.5100    6.1650   -0.3560 hc        1 MOL      0.041303
     60 H24        -2.0460    5.9500   -2.9730 hn        1 MOL      0.341202
     61 H25        -3.1640    6.4390   -4.2580 hn        1 MOL      0.341202
     62 N7         -1.8650    3.7210    0.8840 n         1 MOL     -0.497072
     63 C20        -1.5430    2.9940    2.0760 c3        1 MOL      0.020927
     64 C21        -1.3210    1.4840    1.8840 c         1 MOL      0.453792
     65 O12        -1.6760    0.9200    0.8650 o         1 MOL     -0.501697
     66 H26        -1.0740    3.7710    0.2460 hn        1 MOL      0.350176
     67 H27        -2.2400    3.1730    2.8940 h1        1 MOL      0.112369
     68 H28        -0.5690    3.3460    2.3990 h1        1 MOL      0.112369
     69 N8         -0.7480    0.7300    2.7910 n         1 MOL     -0.580156
     70 C22        -0.0500    1.2190    3.9910 c3        1 MOL      0.194168
     71 C23         1.4770    1.3270    3.7700 c         1 MOL      0.404288
     72 O13         2.1440    2.0800    4.4940 o         1 MOL     -0.568941
     73 C24        -0.4630    0.4060    5.2440 c3        1 MOL      0.248379
     74 C25        -1.9990    0.3750    5.3330 c3        1 MOL     -0.073872
     75 O14        -0.1600   -0.9340    5.1690 oh        1 MOL     -0.558525
     76 H29        -0.8590   -0.2660    2.6860 hn        1 MOL      0.346184
     77 H30        -0.2650    2.2610    4.2500 h1        1 MOL      0.021729
     78 H31        -0.1010    0.9900    6.0920 h1        1 MOL      0.000829
     79 H32         0.3370   -1.1700    5.9560 ho        1 MOL      0.386631
     80 H33        -2.3930   -0.2310    4.5180 hc        1 MOL      0.005856
     81 H34        -2.3360   -0.0880    6.2540 hc        1 MOL      0.005856
     82 H35        -2.3810    1.3970    5.3530 hc        1 MOL      0.005856
     83 N9          2.0240    0.6600    2.7770 n         1 MOL     -0.157668
     84 C26         3.4690    0.6780    2.4530 c3        1 MOL     -0.152985
     85 C27         3.7590    0.9460    0.9560 c         1 MOL      0.418827
     86 O15         2.8530    0.6130    0.1440 o         1 MOL     -0.536769
     87 C28         4.1930   -0.6550    2.8380 c3        1 MOL      0.121511
     88 C29         3.4430   -1.8940    2.2900 c3        1 MOL      0.194615
     89 C30         4.1110   -0.5950    4.3620 c3        1 MOL     -0.169029
     90 C31         4.1320   -3.2230    2.6640 c3        1 MOL     -0.416308
     91 H36         1.4110   -0.0440    2.3900 hn        1 MOL      0.201052
     92 H37         4.0180    1.4620    2.9780 h1        1 MOL      0.196549
     93 H38         5.2000   -0.6970    2.4460 hc        1 MOL      0.011941
     94 H39         3.3990   -1.8130    1.2100 hc        1 MOL     -0.044611
     95 H40         2.4090   -1.9330    2.6460 hc        1 MOL     -0.044611
     96 H41         4.7090    0.2630    4.6790 hc        1 MOL      0.022508
     97 H42         3.0800   -0.6500    4.7010 hc        1 MOL      0.022508
     98 H43         4.6130   -1.4070    4.8850 hc        1 MOL      0.022508
     99 H44         4.1150   -3.4920    3.7190 hc        1 MOL      0.096211
    100 H45         3.8840   -4.0580    2.0060 hc        1 MOL      0.096211
    101 H46         5.1660   -3.0710    2.3520 hc        1 MOL      0.096211
    102 N10         4.9020    1.4710    0.5300 n         1 MOL     -0.321445
    103 C32         6.0590    1.8800    1.3230 c3        1 MOL     -0.023488
    104 C33         7.2940    1.7370    0.4330 c         1 MOL      0.532168
    105 O16         7.2130    1.9900   -0.7510 o         1 MOL     -0.459612
    106 C34         5.8920    3.3250    1.7510 c3        1 MOL     -0.001653
    107 C35         5.2220    4.2530    0.8410 c         1 MOL      0.642535
    108 O17         5.8410    4.7520   -0.1280 o         1 MOL     -0.711510
    109 O18         4.0430    4.6120    1.1410 o         1 MOL     -0.711510
    110 H47         4.8650    1.7600   -0.4340 hn        1 MOL      0.330956
    111 H48         6.1490    1.3500    2.2650 h1        1 MOL      0.071096
    112 H49         6.8940    3.6710    1.9990 hc        1 MOL     -0.036091
    113 H50         5.3560    3.2970    2.6990 hc        1 MOL     -0.036091
    114 N11         8.4250    1.2230    1.0160 n         1 MOL     -0.682992
    115 C36         9.6050    0.9460    0.2360 c3        1 MOL      0.630432
    116 C37        10.1550   -0.4630    0.6820 c         1 MOL      0.045767
    117 O19        10.0110   -0.8070    1.8720 o         1 MOL     -0.472179
    118 C38        10.6070    2.1030    0.3850 c3        1 MOL     -0.298389
    119 C39        11.9030    1.6290   -0.2060 ca        1 MOL      0.050054
    120 C40        12.9500    0.9840    0.5530 ca        1 MOL     -0.132039
    121 C41        12.1130    1.8190   -1.5840 ca        1 MOL     -0.132039
    122 C42        14.1160    0.4770   -0.0120 ca        1 MOL     -0.162187
    123 C43        13.3330    1.2680   -2.1370 ca        1 MOL     -0.162187
    124 C44        14.3170    0.5160   -1.3910 ca        1 MOL     -0.102060
    125 H51         8.5690    1.1390    2.0150 hn        1 MOL      0.321387
    126 H52         9.3980    0.9000   -0.8350 h1        1 MOL     -0.060381
    127 H53        10.7930    2.3000    1.4340 hc        1 MOL      0.106450
    128 H54        10.1500    2.9310   -0.1610 hc        1 MOL      0.106450
    129 H55        12.7420    0.9140    1.6050 ha        1 MOL      0.129150
    130 H56        11.3690    2.3810   -2.1200 ha        1 MOL      0.129150
    131 H57        14.7680   -0.1030    0.6340 ha        1 MOL      0.112884
    132 H58        13.3480    1.4120   -3.2080 ha        1 MOL      0.112884
    133 H59        15.1530    0.0380   -1.8710 ha        1 MOL      0.111105
    134 N12        10.6810   -1.3120   -0.2500 n         1 MOL      0.153858
    135 C45        10.4870   -1.2380   -1.7080 c3        1 MOL     -0.030314
    136 C46         9.1600   -1.8980   -2.1170 c         1 MOL      0.334457
    137 O20         8.7870   -1.8660   -3.2870 o         1 MOL     -0.461798
    138 C47        11.6700   -2.0020   -2.2740 c3        1 MOL     -0.053336
    139 C48        11.7390   -3.1210   -1.2370 c3        1 MOL      0.107613
    140 C49        11.4920   -2.4950    0.0870 c3        1 MOL     -0.212553
    141 H60        10.5510   -0.2310   -2.1170 h1        1 MOL      0.112336
    142 H61        11.4600   -2.3940   -3.2680 hc        1 MOL      0.013469
    143 H62        12.5480   -1.3430   -2.1920 hc        1 MOL      0.013469
    144 H63        11.0040   -3.8990   -1.3780 hc        1 MOL     -0.008804
    145 H64        12.6690   -3.6880   -1.3030 hc        1 MOL     -0.008804
    146 H65        11.0300   -3.2530    0.7190 h1        1 MOL      0.075408
    147 H66        12.4470   -2.1890    0.5170 h1        1 MOL      0.075408
    148 N13         8.4250   -2.5090   -1.1630 n         1 MOL     -0.325191
    149 C50         7.0660   -3.2230   -1.3440 c3        1 MOL      0.025468
    150 C51         7.0510   -4.4750   -0.4390 c         1 MOL      0.397546
    151 O21         7.4570   -4.3800    0.7450 o         1 MOL     -0.571035
    152 C52         5.8880   -2.2730   -1.0750 c3        1 MOL      0.160807
    153 C53         5.7130   -1.2570   -2.1890 c3        1 MOL     -0.327773
    154 C54         5.2310   -1.5820   -3.5930 c         1 MOL      0.672383
    155 O22         5.3230   -2.7400   -4.0690 o         1 MOL     -0.703325
    156 O23         4.8840   -0.6490   -4.3590 o         1 MOL     -0.703325
    157 H67         8.8880   -2.4800   -0.2680 hn        1 MOL      0.252245
    158 H68         7.0480   -3.5690   -2.3700 h1        1 MOL      0.144067
    159 H69         6.0770   -1.7020   -0.1710 hc        1 MOL     -0.001527
    160 H70         5.0320   -2.9420   -0.9660 hc        1 MOL     -0.001527
    161 H71         6.6350   -0.6770   -2.1820 hc        1 MOL      0.073361
    162 H72         5.0520   -0.5170   -1.7330 hc        1 MOL      0.073361
    163 N14         6.4930   -5.6110   -0.8720 n         1 MOL     -0.339861
    164 C55         5.9600   -5.9960   -2.1970 c3        1 MOL      0.037363
    165 H73         4.9470   -6.3810   -2.0830 h1        1 MOL      0.023559
    166 H74         5.9440   -5.1240   -2.8500 h1        1 MOL      0.023559
    167 H75         6.5930   -6.7680   -2.6340 h1        1 MOL      0.023559
    168 H76         6.3970   -6.3770   -0.2210 hn        1 MOL      0.252337
    169 Ca1        -5.8860   -1.6380   -0.7260 Ca        1 MOL      1.670018
    170 O24        -4.2580    0.0400    0.4980 oh        1 MOL     -0.806754
    171 H77        -3.3420    0.3190    0.5070 ho        1 MOL      0.407183
    172 H78        -4.6550    0.4960    1.2510 ho        1 MOL      0.407183
    173 O25        -3.9530   -3.5700   -0.5160 oh        1 MOL     -0.806754
    174 H79        -3.5760   -4.4230   -0.2960 ho        1 MOL      0.407183
    175 H80        -3.2000   -2.9720   -0.5120 ho        1 MOL      0.407183
    176 O26        -5.9720   -2.9300   -3.1140 oh        1 MOL     -0.806754
    177 H81        -6.2630   -2.3220   -3.7880 ho        1 MOL      0.407183
    178 H82        -5.3620   -3.5180   -3.5580 ho        1 MOL      0.407183
    179 O27        -5.3870   -2.7230    1.8880 oh        1 MOL     -0.806754
    180 H83        -5.9400   -2.2130    2.4810 ho        1 MOL      0.407183
    181 H84        -4.6270   -2.9630    2.4210 ho        1 MOL      0.407183
    182 O28        -3.5960   -1.3160   -2.2590 oh        1 MOL     -0.806754
    183 H85        -2.8810   -0.7030   -2.4310 ho        1 MOL      0.407183
    184 H86        -3.8420   -1.6480   -3.1170 ho        1 MOL      0.407183
@<TRIPOS>BOND
     1    1    2 1   
     2    1    4 1   
     3    1    5 1   
     4    1    6 1   
     5    2    3 2   
     6    2    7 1   
     7    7    8 1   
     8    7   15 1   
     9    8    9 1   
    10    8   11 1   
    11    8   16 1   
    12    9   10 2   
    13    9   19 1   
    14   11   12 1   
    15   11   17 1   
    16   11   18 1   
    17   12   13 1   
    18   12   14 1   
    19   19   20 1   
    20   19   24 1   
    21   20   21 1   
    22   20   23 1   
    23   20   25 1   
    24   21   22 2   
    25   21   29 1   
    26   23   26 1   
    27   23   27 1   
    28   23   28 1   
    29   29   30 1   
    30   29   37 1   
    31   30   31 1   
    32   30   33 1   
    33   30   38 1   
    34   31   32 2   
    35   31   41 1   
    36   33   34 1   
    37   33   39 1   
    38   33   40 1   
    39   34   35 1   
    40   34   36 1   
    41   41   42 1   
    42   41   45 1   
    43   42   43 1   
    44   42   46 1   
    45   42   47 1   
    46   43   44 2   
    47   43   48 1   
    48   48   49 1   
    49   48   56 1   
    50   49   50 1   
    51   49   52 1   
    52   49   57 1   
    53   50   51 2   
    54   50   62 1   
    55   52   53 1   
    56   52   58 1   
    57   52   59 1   
    58   53   54 1   
    59   53   55 2   
    60   54   60 1   
    61   54   61 1   
    62   62   63 1   
    63   62   66 1   
    64   63   64 1   
    65   63   67 1   
    66   63   68 1   
    67   64   65 2   
    68   64   69 1   
    69   69   70 1   
    70   69   76 1   
    71   70   71 1   
    72   70   73 1   
    73   70   77 1   
    74   71   72 2   
    75   71   83 1   
    76   73   74 1   
    77   73   75 1   
    78   73   78 1   
    79   74   80 1   
    80   74   81 1   
    81   74   82 1   
    82   75   79 1   
    83   83   84 1   
    84   83   91 1   
    85   84   85 1   
    86   84   87 1   
    87   84   92 1   
    88   85   86 2   
    89   85  102 1   
    90   87   88 1   
    91   87   89 1   
    92   87   93 1   
    93   88   90 1   
    94   88   94 1   
    95   88   95 1   
    96   89   96 1   
    97   89   97 1   
    98   89   98 1   
    99   90   99 1   
   100   90  100 1   
   101   90  101 1   
   102  102  103 1   
   103  102  110 1   
   104  103  104 1   
   105  103  106 1   
   106  103  111 1   
   107  104  105 2   
   108  104  114 1   
   109  106  107 1   
   110  106  112 1   
   111  106  113 1   
   112  107  108 1   
   113  107  109 1   
   114  114  115 1   
   115  114  125 1   
   116  115  116 1   
   117  115  118 1   
   118  115  126 1   
   119  116  117 2   
   120  116  134 1   
   121  118  119 1   
   122  118  127 1   
   123  118  128 1   
   124  119  120 ar  
   125  119  121 ar  
   126  120  122 ar  
   127  120  129 1   
   128  121  123 ar  
   129  121  130 1   
   130  122  124 ar  
   131  122  131 1   
   132  123  124 ar  
   133  123  132 1   
   134  124  133 1   
   135  134  135 1   
   136  134  140 1   
   137  135  136 1   
   138  135  138 1   
   139  135  141 1   
   140  136  137 2   
   141  136  148 1   
   142  138  139 1   
   143  138  142 1   
   144  138  143 1   
   145  139  140 1   
   146  139  144 1   
   147  139  145 1   
   148  140  146 1   
   149  140  147 1   
   150  148  149 1   
   151  148  157 1   
   152  149  150 1   
   153  149  152 1   
   154  149  158 1   
   155  150  151 2   
   156  150  163 1   
   157  152  153 1   
   158  152  159 1   
   159  152  160 1   
   160  153  154 1   
   161  153  161 1   
   162  153  162 1   
   163  154  155 1   
   164  154  156 1   
   165  163  164 1   
   166  163  168 1   
   167  164  165 1   
   168  164  166 1   
   169  164  167 1   
   170  170  171 1   
   171  170  172 1   
   172  173  174 1   
   173  173  175 1   
   174  176  177 1   
   175  176  178 1   
   176  179  180 1   
   177  179  181 1   
   178  182  183 1   
   179  182  184 1   
@<TRIPOS>SUBSTRUCTURE
     1 MOL         1 TEMP              0 ****  ****    0 ROOT
