@<TRIPOS>MOLECULE
MOL
  178   175     1     0     0
SMALL
resp


@<TRIPOS>ATOM
      1 C1          3.4680    7.9680   -1.4720 c3        1 MOL     -0.409622
      2 C2          4.7250    7.0980   -1.4310 c         1 MOL      0.648449
      3 O1          5.5560    7.3490   -0.5640 o         1 MOL     -0.581521
      4 H1          3.7490    9.0010   -1.6750 hc        1 MOL      0.107145
      5 H2          2.8050    7.6110   -2.2600 hc        1 MOL      0.107145
      6 H3          2.9560    7.9130   -0.5120 hc        1 MOL      0.107145
      7 N1          4.8970    6.0290   -2.2640 n         1 MOL     -0.562611
      8 C3          5.8490    4.9400   -2.0380 c3        1 MOL      0.271462
      9 C4          5.4490    4.0640   -0.7280 c         1 MOL      0.543001
     10 O2          5.0490    2.9010   -0.8030 o         1 MOL     -0.476542
     11 C5          6.0030    4.0940   -3.2710 c3        1 MOL     -0.379331
     12 C6          7.0450    2.9530   -3.0090 c         1 MOL      0.747846
     13 O3          7.9410    3.0930   -2.1640 o         1 MOL     -0.732906
     14 O4          6.8980    1.9230   -3.6460 o         1 MOL     -0.732906
     15 H4          4.2460    5.9120   -3.0200 hn        1 MOL      0.299703
     16 H5          6.8430    5.3590   -1.9200 h1        1 MOL      0.023980
     17 H6          6.3920    4.7840   -4.0180 hc        1 MOL      0.054884
     18 H7          5.1120    3.5690   -3.6500 hc        1 MOL      0.054884
     19 N2          5.5130    4.6090    0.4480 n         1 MOL     -0.742411
     20 C7          5.0430    3.9800    1.6550 c3        1 MOL      0.832447
     21 C8          3.5610    3.5840    1.5550 c         1 MOL      0.254309
     22 O5          2.8230    4.2420    0.8150 o         1 MOL     -0.534959
     23 C9          5.3210    4.9640    2.7950 c3        1 MOL     -0.296968
     24 H8          5.8240    5.5600    0.5900 hn        1 MOL      0.314111
     25 H9          5.7170    3.1590    1.8810 h1        1 MOL     -0.089861
     26 H10         6.4060    5.0060    2.7500 hc        1 MOL      0.045657
     27 H11         4.9070    5.9740    2.7160 hc        1 MOL      0.045657
     28 H12         5.0830    4.4570    3.7300 hc        1 MOL      0.045657
     29 N3          3.0300    2.6780    2.2660 n         1 MOL     -0.340688
     30 C10         3.6880    1.7720    3.1780 c3        1 MOL      0.178153
     31 C11         4.1180    0.5040    2.4200 c         1 MOL      0.361248
     32 O6          3.5490    0.0850    1.3910 o         1 MOL     -0.490697
     33 C12         2.7500    1.5710    4.3310 c3        1 MOL     -0.361606
     34 C13         1.2230    1.3260    3.9470 c         1 MOL      0.824924
     35 O7          0.3730    1.7200    4.7910 o         1 MOL     -0.701579
     36 O8          0.8660    0.9010    2.8300 o         1 MOL     -0.701579
     37 H13         2.0150    2.6860    2.2090 hn        1 MOL      0.266287
     38 H14         4.5900    2.2580    3.5300 h1        1 MOL      0.008036
     39 H15         2.6820    2.5500    4.8080 hc        1 MOL      0.066820
     40 H16         3.1820    0.8220    4.9840 hc        1 MOL      0.066820
     41 N4          5.1180   -0.2370    2.9620 n         1 MOL     -0.474331
     42 C14         5.7480   -1.3810    2.1530 c3        1 MOL     -0.018708
     43 C15         6.6570   -0.8880    1.0800 c         1 MOL      0.573245
     44 O9          7.2690    0.1380    1.1030 o         1 MOL     -0.488990
     45 H17         5.4600   -0.1290    3.9060 hn        1 MOL      0.314512
     46 H18         4.9320   -1.9940    1.7960 h1        1 MOL      0.044110
     47 H19         6.3070   -2.0460    2.8130 h1        1 MOL      0.044110
     48 N5          6.8000   -1.5980   -0.0230 n         1 MOL     -0.358336
     49 C16         6.5360   -3.0550   -0.2240 c3        1 MOL     -0.111265
     50 C17         5.5480   -3.2760   -1.4180 c         1 MOL      0.641533
     51 O10         5.5280   -4.3080   -2.0130 o         1 MOL     -0.566749
     52 C18         7.8980   -3.7730   -0.5350 c3        1 MOL     -0.392232
     53 C19         8.8350   -3.5960    0.5930 c         1 MOL      0.649543
     54 N6          8.5700   -4.0960    1.7860 n         1 MOL     -0.757583
     55 O11         9.8500   -2.8950    0.4880 o         1 MOL     -0.528802
     56 H20         7.2440   -1.0780   -0.7540 hn        1 MOL      0.315411
     57 H21         6.1070   -3.5940    0.6210 h1        1 MOL      0.102259
     58 H22         8.2610   -3.3710   -1.4860 hc        1 MOL      0.139246
     59 H23         7.6290   -4.8180   -0.7150 hc        1 MOL      0.139246
     60 H24         7.7470   -4.6720    1.8710 hn        1 MOL      0.354869
     61 H25         9.2990   -4.0650    2.4770 hn        1 MOL      0.354869
     62 N7          4.9400   -2.1810   -1.9170 n         1 MOL     -0.321126
     63 C20         3.9200   -2.1920   -3.0530 c3        1 MOL     -0.281420
     64 C21         2.7040   -3.0850   -2.9020 c         1 MOL      0.654301
     65 O12         1.7200   -2.8110   -3.5620 o         1 MOL     -0.594479
     66 H26         5.1740   -1.3090   -1.4600 hn        1 MOL      0.279747
     67 H27         4.3220   -2.5000   -4.0140 h1        1 MOL      0.165612
     68 H28         3.6060   -1.1450   -3.1240 h1        1 MOL      0.165612
     69 N8          2.5480   -4.0730   -1.9820 n         1 MOL     -0.324511
     70 C22         1.2880   -4.7770   -1.8490 c3        1 MOL     -0.387790
     71 C23         0.1030   -3.8600   -1.4130 c         1 MOL      0.899895
     72 O13         0.2470   -3.0060   -0.4960 o         1 MOL     -0.711926
     73 C24         1.4560   -5.9940   -1.0120 c3        1 MOL      0.379104
     74 C25         2.3980   -7.0320   -1.5270 c3        1 MOL     -0.330169
     75 O14         1.9070   -5.7410    0.3050 oh        1 MOL     -0.622731
     76 H29         3.2630   -4.3480   -1.3270 hn        1 MOL      0.293478
     77 H30         1.0350   -5.1430   -2.8510 h1        1 MOL      0.154063
     78 H31         0.4560   -6.4170   -0.9210 h1        1 MOL      0.021381
     79 H32         1.5080   -6.5050    0.7170 ho        1 MOL      0.412235
     80 H33         3.4530   -6.8550   -1.3400 hc        1 MOL      0.082565
     81 H34         2.1000   -7.9680   -1.0570 hc        1 MOL      0.082565
     82 H35         2.1090   -7.2810   -2.5490 hc        1 MOL      0.082565
     83 N9         -1.0280   -3.9370   -2.0650 n         1 MOL     -0.503584
     84 C26        -2.1660   -2.9970   -1.7820 c3        1 MOL     -0.019392
     85 C27        -2.8910   -3.3220   -0.4660 c         1 MOL      0.384270
     86 O15        -3.2060   -4.4820   -0.1920 o         1 MOL     -0.593640
     87 C28        -3.0830   -2.9100   -3.0050 c3        1 MOL      0.218529
     88 C29        -4.3290   -2.0920   -2.7420 c3        1 MOL      0.196110
     89 C30        -2.3640   -2.3630   -4.2920 c3        1 MOL     -0.306872
     90 C31        -5.3260   -2.0880   -3.8530 c3        1 MOL     -0.175167
     91 H36        -1.1060   -4.6980   -2.7190 hn        1 MOL      0.268918
     92 H37        -1.8180   -1.9770   -1.5960 h1        1 MOL      0.071878
     93 H38        -3.5840   -3.8560   -3.2170 hc        1 MOL     -0.019563
     94 H39        -3.9640   -1.0800   -2.5510 hc        1 MOL     -0.057461
     95 H40        -4.8340   -2.4590   -1.8440 hc        1 MOL     -0.057461
     96 H41        -1.4410   -2.9060   -4.4710 hc        1 MOL      0.071109
     97 H42        -2.9070   -2.5860   -5.2060 hc        1 MOL      0.071109
     98 H43        -2.3000   -1.2730   -4.2890 hc        1 MOL      0.071109
     99 H44        -5.5620   -3.0990   -4.2000 hc        1 MOL      0.021182
    100 H45        -6.2660   -1.6010   -3.6050 hc        1 MOL      0.021182
    101 H46        -4.8440   -1.4620   -4.5970 hc        1 MOL      0.021182
    102 N10        -3.1900   -2.4260    0.4370 n         1 MOL      0.065375
    103 C32        -4.0120   -2.7180    1.6630 c3        1 MOL     -0.027473
    104 C33        -5.3620   -2.0380    1.6680 c         1 MOL      0.457950
    105 O16        -6.2350   -2.5150    2.3360 o         1 MOL     -0.526451
    106 C34        -3.1820   -2.1830    2.8210 c3        1 MOL     -0.214259
    107 C35        -1.8640   -2.9050    3.0030 c         1 MOL      0.731249
    108 O17        -1.8740   -3.8970    3.7850 o         1 MOL     -0.717924
    109 O18        -0.7930   -2.4430    2.4730 o         1 MOL     -0.717924
    110 H47        -2.8990   -1.4720    0.2590 hn        1 MOL     -0.020489
    111 H48        -4.1120   -3.7960    1.8040 h1        1 MOL      0.116121
    112 H49        -3.7230   -2.0980    3.7570 hc        1 MOL      0.074149
    113 H50        -3.0400   -1.1440    2.5090 hc        1 MOL      0.074149
    114 N11        -5.6250   -0.9440    0.8830 n         1 MOL     -0.594592
    115 C36        -6.9420   -0.2800    0.8660 c3        1 MOL      0.464970
    116 C37        -6.7770    1.2750    0.6340 c         1 MOL      0.120686
    117 O19        -7.1500    1.8490   -0.3810 o         1 MOL     -0.422946
    118 C38        -7.7110   -0.9150   -0.2790 c3        1 MOL     -0.465532
    119 C39        -9.2010   -0.6970   -0.2560 ca        1 MOL      0.118719
    120 C40        -9.9100   -1.2360    0.8920 ca        1 MOL     -0.128749
    121 C41        -9.8940    0.0540   -1.1770 ca        1 MOL     -0.128749
    122 C42       -11.2870   -1.1040    1.0100 ca        1 MOL     -0.156906
    123 C43       -11.2630    0.2710   -0.9680 ca        1 MOL     -0.156906
    124 C44       -11.9980   -0.3360    0.0630 ca        1 MOL     -0.113535
    125 H51        -4.8050   -0.5020    0.4860 hn        1 MOL      0.317384
    126 H52        -7.4290   -0.4490    1.8310 h1        1 MOL     -0.003225
    127 H53        -7.5910   -1.9920   -0.1650 hc        1 MOL      0.172526
    128 H54        -7.3300   -0.5440   -1.2300 hc        1 MOL      0.172526
    129 H55        -9.4960   -1.8590    1.6780 ha        1 MOL      0.117649
    130 H56        -9.3610    0.2890   -2.0940 ha        1 MOL      0.117649
    131 H57       -11.7450   -1.4920    1.9110 ha        1 MOL      0.108516
    132 H58       -11.7370    1.0320   -1.5790 ha        1 MOL      0.108516
    133 H59       -13.0570   -0.1210    0.1380 ha        1 MOL      0.094139
    134 N12        -6.1040    1.9810    1.5990 n         1 MOL      0.143296
    135 C45        -5.8110    3.4010    1.5570 c3        1 MOL     -0.060717
    136 C46        -5.1430    3.8400    0.2450 c         1 MOL      0.244467
    137 O20        -5.2990    4.9990   -0.1110 o         1 MOL     -0.475590
    138 C47        -5.0950    3.8000    2.8450 c3        1 MOL     -0.004602
    139 C48        -5.6100    2.6840    3.7910 c3        1 MOL     -0.074162
    140 C49        -5.7350    1.4430    2.8880 c3        1 MOL     -0.284336
    141 H60        -6.8280    3.7940    1.5810 h1        1 MOL      0.072727
    142 H61        -4.0120    3.8020    2.7330 hc        1 MOL      0.054449
    143 H62        -5.4380    4.7800    3.1800 hc        1 MOL      0.054449
    144 H63        -4.8760    2.5650    4.5820 hc        1 MOL      0.030912
    145 H64        -6.6140    2.9660    4.1180 hc        1 MOL      0.030912
    146 H65        -4.7500    0.9890    2.9020 h1        1 MOL      0.149592
    147 H66        -6.5010    0.7910    3.3140 h1        1 MOL      0.149592
    148 N13        -4.3760    2.9770   -0.4260 n         1 MOL     -0.013808
    149 C50        -3.6830    3.2800   -1.7160 c3        1 MOL     -0.374127
    150 C51        -4.7550    3.5840   -2.7750 c         1 MOL      0.515557
    151 O21        -4.7340    4.6940   -3.3000 o         1 MOL     -0.526078
    152 C52        -2.9100    2.0080   -2.1710 c3        1 MOL      0.382254
    153 C53        -1.7330    1.7060   -1.2230 c3        1 MOL     -0.396661
    154 C54        -2.0580    0.7620   -0.1300 c         1 MOL      0.960199
    155 O22        -1.1410    0.1840    0.4380 o         1 MOL     -0.800640
    156 O23        -3.2340    0.6000    0.3160 o         1 MOL     -0.800640
    157 H67        -4.0520    2.1630    0.0740 hn        1 MOL      0.231774
    158 H68        -3.0110    4.1360   -1.6530 h1        1 MOL      0.166979
    159 H69        -2.4240    2.2060   -3.1190 hc        1 MOL     -0.090212
    160 H70        -3.5520    1.1280   -2.2610 hc        1 MOL     -0.090212
    161 H71        -1.2710    2.6260   -0.8550 hc        1 MOL      0.095081
    162 H72        -0.9700    1.2950   -1.8860 hc        1 MOL      0.095081
    163 N14        -5.7860    2.7410   -3.0350 n         1 MOL     -0.240762
    164 C55        -6.8230    3.1020   -3.9870 c3        1 MOL     -0.436484
    165 H73        -7.6160    2.3540   -3.9610 h1        1 MOL      0.150591
    166 H74        -7.2350    4.0750   -3.7240 h1        1 MOL      0.150591
    167 H75        -6.3980    3.1450   -4.9890 h1        1 MOL      0.150591
    168 H76        -5.8360    1.9100   -2.4540 hn        1 MOL      0.270368
    169 Ca1         0.9980   -1.0440    1.1090 Ca        1 MOL      1.750491
    170 O24         2.0050   -1.8070    3.9480 oh        1 MOL     -0.887438
    171 H77         1.3380   -2.1060    4.5690 ho        1 MOL      0.424405
    172 H78         2.8340   -1.9100    4.4150 ho        1 MOL      0.424405
    173 O25         2.7650   -3.1430    1.2950 oh        1 MOL     -0.887438
    174 H79         2.4920   -4.0150    1.0110 ho        1 MOL      0.424405
    175 H80         3.0300   -3.2570    2.2080 ho        1 MOL      0.424405
    176 O26         1.7280   -0.6690   -1.3750 oh        1 MOL     -0.887438
    177 H81         1.4390   -1.0310   -2.2130 ho        1 MOL      0.424405
    178 H82         1.8040    0.2650   -1.5400 ho        1 MOL      0.424405
@<TRIPOS>BOND
     1    1    2 1   
     2    1    4 1   
     3    1    5 1   
     4    1    6 1   
     5    2    3 2   
     6    2    7 1   
     7    7    8 1   
     8    7   15 1   
     9    8    9 1   
    10    8   11 1   
    11    8   16 1   
    12    9   10 2   
    13    9   19 1   
    14   11   12 1   
    15   11   17 1   
    16   11   18 1   
    17   12   13 1   
    18   12   14 1   
    19   19   20 1   
    20   19   24 1   
    21   20   21 1   
    22   20   23 1   
    23   20   25 1   
    24   21   22 2   
    25   21   29 1   
    26   23   26 1   
    27   23   27 1   
    28   23   28 1   
    29   29   30 1   
    30   29   37 1   
    31   30   31 1   
    32   30   33 1   
    33   30   38 1   
    34   31   32 2   
    35   31   41 1   
    36   33   34 1   
    37   33   39 1   
    38   33   40 1   
    39   34   35 1   
    40   34   36 1   
    41   41   42 1   
    42   41   45 1   
    43   42   43 1   
    44   42   46 1   
    45   42   47 1   
    46   43   44 2   
    47   43   48 1   
    48   48   49 1   
    49   48   56 1   
    50   49   50 1   
    51   49   52 1   
    52   49   57 1   
    53   50   51 2   
    54   50   62 1   
    55   52   53 1   
    56   52   58 1   
    57   52   59 1   
    58   53   54 1   
    59   53   55 2   
    60   54   60 1   
    61   54   61 1   
    62   62   63 1   
    63   62   66 1   
    64   63   64 1   
    65   63   67 1   
    66   63   68 1   
    67   64   65 2   
    68   64   69 1   
    69   69   70 1   
    70   69   76 1   
    71   70   71 1   
    72   70   73 1   
    73   70   77 1   
    74   71   72 2   
    75   71   83 1   
    76   73   74 1   
    77   73   75 1   
    78   73   78 1   
    79   74   80 1   
    80   74   81 1   
    81   74   82 1   
    82   75   79 1   
    83   83   84 1   
    84   83   91 1   
    85   84   85 1   
    86   84   87 1   
    87   84   92 1   
    88   85   86 2   
    89   85  102 1   
    90   87   88 1   
    91   87   89 1   
    92   87   93 1   
    93   88   90 1   
    94   88   94 1   
    95   88   95 1   
    96   89   96 1   
    97   89   97 1   
    98   89   98 1   
    99   90   99 1   
   100   90  100 1   
   101   90  101 1   
   102  102  103 1   
   103  102  110 1   
   104  103  104 1   
   105  103  106 1   
   106  103  111 1   
   107  104  105 2   
   108  104  114 1   
   109  106  107 1   
   110  106  112 1   
   111  106  113 1   
   112  107  108 1   
   113  107  109 1   
   114  114  115 1   
   115  114  125 1   
   116  115  116 1   
   117  115  118 1   
   118  115  126 1   
   119  116  117 2   
   120  116  134 1   
   121  118  119 1   
   122  118  127 1   
   123  118  128 1   
   124  119  120 ar  
   125  119  121 ar  
   126  120  122 ar  
   127  120  129 1   
   128  121  123 ar  
   129  121  130 1   
   130  122  124 ar  
   131  122  131 1   
   132  123  124 ar  
   133  123  132 1   
   134  124  133 1   
   135  134  135 1   
   136  134  140 1   
   137  135  136 1   
   138  135  138 1   
   139  135  141 1   
   140  136  137 2   
   141  136  148 1   
   142  138  139 1   
   143  138  142 1   
   144  138  143 1   
   145  139  140 1   
   146  139  144 1   
   147  139  145 1   
   148  140  146 1   
   149  140  147 1   
   150  148  149 1   
   151  148  157 1   
   152  149  150 1   
   153  149  152 1   
   154  149  158 1   
   155  150  151 2   
   156  150  163 1   
   157  152  153 1   
   158  152  159 1   
   159  152  160 1   
   160  153  154 1   
   161  153  161 1   
   162  153  162 1   
   163  154  155 1   
   164  154  156 1   
   165  163  164 1   
   166  163  168 1   
   167  164  165 1   
   168  164  166 1   
   169  164  167 1   
   170  170  171 1   
   171  170  172 1   
   172  173  174 1   
   173  173  175 1   
   174  176  177 1   
   175  176  178 1   
@<TRIPOS>SUBSTRUCTURE
     1 MOL         1 TEMP              0 ****  ****    0 ROOT
