@<TRIPOS>MOLECULE
MOL
  192   187     1     0     0
SMALL
resp


@<TRIPOS>ATOM
      1 C1          5.9650    3.2390    5.1670 c3        1 MOL     -0.258099
      2 C2          5.4570    2.8070    3.7510 c         1 MOL      0.738783
      3 O1          4.7380    3.5650    3.0620 o         1 MOL     -0.621927
      4 H1          6.3340    2.3640    5.7030 hc        1 MOL      0.063422
      5 H2          6.7700    3.9650    5.0590 hc        1 MOL      0.063422
      6 H3          5.1440    3.6870    5.7270 hc        1 MOL      0.063422
      7 N1          5.7330    1.5690    3.3060 n         1 MOL     -0.631512
      8 C3          5.3080    0.7870    2.1190 c3        1 MOL      0.536773
      9 C4          3.7740    0.7130    1.9470 c         1 MOL      0.007723
     10 O2          3.3360    0.1510    0.9300 o         1 MOL     -0.030125
     11 C5          5.7440   -0.6830    2.2310 c3        1 MOL     -0.434197
     12 C6          7.1580   -0.9690    2.6940 c         1 MOL      0.765747
     13 O3          7.9490   -1.5790    1.9670 o         1 MOL     -0.701886
     14 O4          7.5040   -0.6450    3.8460 o         1 MOL     -0.701886
     15 H4          6.3210    1.0400    3.9270 hn        1 MOL      0.257193
     16 H5          5.7930    1.2020    1.2280 h1        1 MOL      0.053036
     17 H6          5.4860   -1.1640    1.2810 hc        1 MOL      0.051889
     18 H7          5.0860   -1.1400    2.9580 hc        1 MOL      0.051889
     19 N2          2.8490    1.1920    2.8010 n         1 MOL     -0.485994
     20 C7          1.4020    0.8590    2.6700 c3        1 MOL      0.294651
     21 C8          0.5440    2.0380    2.2800 c         1 MOL      0.246589
     22 O5          0.8010    3.0780    2.8130 o         1 MOL     -0.489629
     23 C9          1.0710    0.1560    4.0180 c3        1 MOL     -0.118819
     24 C10         1.7540   -1.2220    4.2730 c3        1 MOL      0.187253
     25 C11         1.2760   -2.0370    5.5360 c3        1 MOL     -0.278370
     26 C12         1.7370   -1.2450    6.8000 c3        1 MOL      0.204407
     27 N3          1.4730   -2.0670    8.0080 n4        1 MOL     -0.410100
     28 H8          3.1260    1.7810    3.5720 hn        1 MOL      0.317353
     29 H9          1.2230    0.0890    1.9150 h1        1 MOL      0.195004
     30 H10         0.0170   -0.1030    4.1290 hc        1 MOL      0.014631
     31 H11         1.4330    0.8400    4.7860 hc        1 MOL      0.014631
     32 H12         2.8180   -1.0880    4.4730 hc        1 MOL     -0.030064
     33 H13         1.6770   -1.8530    3.3860 hc        1 MOL     -0.030064
     34 H14         1.7760   -3.0060    5.5550 hc        1 MOL      0.085360
     35 H15         0.2230   -2.0750    5.3000 hc        1 MOL      0.085360
     36 H16         1.0930   -0.3610    6.8260 hx        1 MOL      0.055524
     37 H17         2.7200   -0.7940    6.6930 hx        1 MOL      0.055524
     38 H18         2.0120   -2.9200    8.0060 hn        1 MOL      0.322764
     39 H19         1.6410   -1.5250    8.8490 hn        1 MOL      0.322764
     40 H20         0.5280   -2.4230    8.0350 hn        1 MOL      0.322764
     41 N4         -0.3990    1.9590    1.3800 n         1 MOL      0.230285
     42 C13        -0.9410    0.8580    0.6410 c3        1 MOL     -1.823317
     43 C14        -1.2270   -0.4110    1.4560 c         1 MOL      0.780446
     44 O6         -0.5150   -1.4000    1.3550 o         1 MOL     -0.558624
     45 C15        -0.2800    0.6070   -0.7280 c3        1 MOL      0.732203
     46 C16        -0.4340    1.8050   -1.6710 c         1 MOL      0.364258
     47 O7          0.3340    1.9170   -2.6810 o         1 MOL     -0.657189
     48 O8         -1.4110    2.5960   -1.4260 o         1 MOL     -0.657189
     49 H21        -0.7320    2.8900    1.1710 hn        1 MOL      0.212157
     50 H22        -1.9430    1.1550    0.3030 h1        1 MOL      0.392876
     51 H23        -0.6480   -0.2650   -1.2770 hc        1 MOL     -0.068732
     52 H24         0.7970    0.5030   -0.6270 hc        1 MOL     -0.068732
     53 N5         -2.2360   -0.3700    2.3520 n         1 MOL     -0.309856
     54 C17        -3.3920    0.5960    2.1650 c3        1 MOL     -0.020995
     55 C18        -4.5680    0.2870    3.1680 c         1 MOL      0.526433
     56 O9         -4.4260   -0.7900    3.7300 o         1 MOL     -0.553738
     57 H25        -2.4390   -1.1930    2.8910 hn        1 MOL      0.273626
     58 H26        -3.9140    0.4660    1.2140 h1        1 MOL      0.091395
     59 H27        -3.1840    1.6540    2.3410 h1        1 MOL      0.091395
     60 N6         -5.5760    1.1320    3.4920 n         1 MOL     -0.489215
     61 C19        -5.9840    2.2340    2.7520 c3        1 MOL      0.092773
     62 C20        -6.9470    1.8040    1.6950 c         1 MOL      0.412562
     63 O10        -7.8150    0.9200    1.8360 o         1 MOL     -0.509064
     64 C21        -6.6150    3.3040    3.7360 c3        1 MOL     -0.199457
     65 C22        -7.3010    4.5860    3.2450 c         1 MOL      0.675702
     66 O11        -7.2890    5.5860    4.0190 o         1 MOL     -0.680843
     67 O12        -7.9270    4.5940    2.1830 o         1 MOL     -0.680843
     68 H28        -6.1170    0.7680    4.2530 hn        1 MOL      0.316902
     69 H29        -5.0980    2.6290    2.2630 h1        1 MOL      0.019600
     70 H30        -5.7800    3.5720    4.3880 hc        1 MOL      0.063146
     71 H31        -7.3070    2.7450    4.3640 hc        1 MOL      0.063146
     72 N7         -6.8960    2.2850    0.4490 n         1 MOL     -0.062821
     73 C23        -7.6680    1.8390   -0.6970 c3        1 MOL     -0.238840
     74 C24        -7.4080    0.4360   -1.3580 c         1 MOL      0.430466
     75 O13        -8.3370   -0.2910   -1.7340 o         1 MOL     -0.490001
     76 H32        -6.2340    3.0460    0.3750 hn        1 MOL      0.128221
     77 H33        -7.5450    2.6890   -1.3660 h1        1 MOL      0.119159
     78 H34        -8.7350    1.9830   -0.5200 h1        1 MOL      0.119159
     79 N8         -6.1160    0.0400   -1.3320 n         1 MOL     -0.154953
     80 C25        -5.7160   -1.3210   -1.8040 c3        1 MOL     -0.231411
     81 C26        -4.6010   -1.8620   -0.8220 c         1 MOL      0.503942
     82 O14        -3.6000   -1.2190   -0.5840 o         1 MOL     -0.308763
     83 C27        -5.1990   -1.4100   -3.2580 c3        1 MOL      0.299942
     84 C28        -4.2010   -0.3460   -3.6860 c3        1 MOL     -0.312478
     85 O15        -6.3740   -1.3430   -4.0780 oh        1 MOL     -0.634954
     86 H35        -5.4640    0.6480   -0.8520 hn        1 MOL      0.089905
     87 H36        -6.5440   -2.0310   -1.7050 h1        1 MOL      0.126039
     88 H37        -4.6770   -2.3670   -3.3030 h1        1 MOL      0.103527
     89 H38        -6.8050   -0.4880   -3.9370 ho        1 MOL      0.416380
     90 H39        -4.6490    0.6330   -3.8780 hc        1 MOL      0.067819
     91 H40        -3.4490   -0.2370   -2.8990 hc        1 MOL      0.067819
     92 H41        -3.6310   -0.7170   -4.5370 hc        1 MOL      0.067819
     93 N9         -4.8230   -3.1430   -0.4270 n         1 MOL     -0.463908
     94 C29        -3.9850   -3.8300    0.5040 c3        1 MOL      0.032795
     95 C30        -2.5770   -4.2190   -0.0680 c         1 MOL      0.325144
     96 O16        -1.7220   -4.6750    0.6990 o         1 MOL     -0.513792
     97 C31        -4.6720   -5.1260    1.1020 c3        1 MOL     -0.020848
     98 C32        -5.4480   -6.1050    0.2140 c3        1 MOL      0.194323
     99 C33        -5.7230   -4.6020    2.1750 c3        1 MOL     -0.234372
    100 C34        -4.6040   -6.7150   -0.9110 c3        1 MOL     -0.277731
    101 H42        -5.8060   -3.3780   -0.4670 hn        1 MOL      0.327120
    102 H43        -3.7280   -3.2150    1.3650 h1        1 MOL      0.111239
    103 H44        -3.9260   -5.6880    1.6680 hc        1 MOL      0.061628
    104 H45        -6.2880   -5.5990   -0.2590 hc        1 MOL     -0.023661
    105 H46        -5.9240   -6.9020    0.7840 hc        1 MOL     -0.023661
    106 H47        -6.3170   -5.4310    2.5540 hc        1 MOL      0.061695
    107 H48        -5.2950   -4.0070    2.9810 hc        1 MOL      0.061695
    108 H49        -6.4490   -3.9710    1.6470 hc        1 MOL      0.061695
    109 H50        -4.5190   -5.9880   -1.7140 hc        1 MOL      0.067577
    110 H51        -3.6030   -6.8580   -0.5020 hc        1 MOL      0.067577
    111 H52        -5.0500   -7.6460   -1.2490 hc        1 MOL      0.067577
    112 N10        -2.3480   -4.0430   -1.3660 n         1 MOL     -0.101538
    113 C35        -1.2590   -4.5790   -2.2150 c3        1 MOL     -0.025215
    114 C36         0.1680   -4.2270   -1.7590 c         1 MOL      0.429375
    115 O17         1.0860   -4.8250   -2.2260 o         1 MOL     -0.556310
    116 C37        -1.4610   -4.0790   -3.6290 c3        1 MOL      0.034140
    117 C38        -1.3980   -2.5510   -3.7260 c3        1 MOL     -0.069686
    118 O18        -2.7690   -4.4600   -4.0670 oh        1 MOL     -0.591825
    119 H53        -3.2070   -3.7960   -1.8290 hn        1 MOL      0.115444
    120 H54        -1.2570   -5.6660   -2.1530 h1        1 MOL      0.115552
    121 H55        -0.6840   -4.4410   -4.2980 h1        1 MOL      0.092722
    122 H56        -2.6490   -4.5520   -5.0110 ho        1 MOL      0.407461
    123 H57        -1.5120   -2.2460   -4.7570 hc        1 MOL      0.050647
    124 H58        -2.2150   -2.0720   -3.1940 hc        1 MOL      0.050647
    125 H59        -0.4370   -2.2310   -3.3240 hc        1 MOL      0.050647
    126 N11         0.3860   -3.3490   -0.7900 n         1 MOL     -0.197063
    127 C39         1.7350   -2.8230   -0.2800 c3        1 MOL      0.026616
    128 C40         2.5410   -2.2390   -1.4540 c         1 MOL      0.300576
    129 O19         2.0610   -2.1380   -2.5290 o         1 MOL     -0.409365
    130 C41         2.4470   -3.9760    0.5040 c3        1 MOL      0.353441
    131 C42         3.5110   -3.5370    1.4430 c3        1 MOL     -0.049631
    132 O20         2.9770   -4.8660   -0.4350 oh        1 MOL     -0.746699
    133 H60        -0.3400   -2.9610   -0.2040 hn        1 MOL      0.137477
    134 H61         1.5290   -2.1370    0.5270 h1        1 MOL      0.111990
    135 H62         1.7210   -4.4530    1.1600 h1        1 MOL     -0.028521
    136 H63         2.3130   -4.9600   -1.1190 ho        1 MOL      0.460690
    137 H64         3.8540   -4.2970    2.1460 hc        1 MOL      0.014786
    138 H65         4.3880   -3.3240    0.8320 hc        1 MOL      0.014786
    139 H66         3.1810   -2.7140    2.0740 hc        1 MOL      0.014786
    140 N12         3.7330   -1.6430   -1.3620 n         1 MOL     -0.343179
    141 C43         4.4940   -1.0310   -2.5220 c3        1 MOL      0.114769
    142 C44         4.1770    0.4480   -2.7950 c         1 MOL      0.288851
    143 O21         4.1300    0.9250   -3.9150 o         1 MOL     -0.538569
    144 C45         5.9940   -1.2150   -2.3580 c3        1 MOL     -0.324381
    145 C46         6.3060   -2.7480   -2.2460 c3        1 MOL      0.065661
    146 C47         7.8020   -2.9060   -2.0360 c3        1 MOL      0.054639
    147 C48         8.2060   -4.3860   -1.8560 c3        1 MOL     -0.087842
    148 N13         7.7990   -5.2520   -2.9900 n4        1 MOL     -0.360562
    149 H67         3.9300   -1.4430   -0.3970 hn        1 MOL      0.262649
    150 H68         4.2170   -1.4440   -3.4910 h1        1 MOL      0.059904
    151 H69         6.2720   -0.7620   -1.4000 hc        1 MOL      0.112343
    152 H70         6.5080   -0.8050   -3.2200 hc        1 MOL      0.112343
    153 H71         5.9090   -3.2820   -3.1120 hc        1 MOL      0.014361
    154 H72         5.8820   -3.1590   -1.3330 hc        1 MOL      0.014361
    155 H73         8.2080   -2.3730   -1.1730 hc        1 MOL      0.024827
    156 H74         8.2730   -2.5500   -2.9480 hc        1 MOL      0.024827
    157 H75         7.6410   -4.7130   -0.9850 hx        1 MOL      0.123072
    158 H76         9.2760   -4.4060   -1.6430 hx        1 MOL      0.123072
    159 H77         8.1360   -4.9580   -3.8990 hn        1 MOL      0.323621
    160 H78         8.0630   -6.1970   -2.7590 hn        1 MOL      0.323621
    161 H79         6.7920   -5.2110   -3.0450 hn        1 MOL      0.323621
    162 N14         3.8570    1.1920   -1.7700 n         1 MOL      0.403986
    163 C49         3.9340    2.6740   -1.6400 c3        1 MOL     -0.698346
    164 C50         5.4010    3.1620   -1.6050 c         1 MOL      0.575995
    165 O22         6.2360    2.5250   -0.9330 o         1 MOL     -0.520840
    166 C51         3.0850    3.0690   -0.4500 c3        1 MOL      0.977073
    167 C52         2.7680    4.5600   -0.3290 c3        1 MOL     -0.135642
    168 C53         2.3270    5.2320   -1.6980 c         1 MOL      0.427818
    169 O23         3.1410    5.9620   -2.2770 o         1 MOL     -0.651822
    170 O24         1.2090    4.9330   -2.2340 o         1 MOL     -0.651822
    171 H80         3.9660    0.7480   -0.8640 hn        1 MOL     -0.192570
    172 H81         3.4960    3.2470   -2.4660 h1        1 MOL      0.220780
    173 H82         3.6780    2.7480    0.4030 hc        1 MOL     -0.276219
    174 H83         2.1020    2.6140   -0.5350 hc        1 MOL     -0.276219
    175 H84         3.6350    5.1040    0.0550 hc        1 MOL      0.020921
    176 H85         1.8820    4.6730    0.2940 hc        1 MOL      0.020921
    177 N15         5.6770    4.3370   -2.2160 n         1 MOL     -0.392676
    178 C54         6.9880    5.0620   -2.2320 c3        1 MOL     -0.059846
    179 H86         7.5950    4.6960   -3.0610 h1        1 MOL      0.065890
    180 H87         6.8120    6.1300   -2.3560 h1        1 MOL      0.065890
    181 H88         7.5130    4.8860   -1.2940 h1        1 MOL      0.065890
    182 H89         4.9120    4.8170   -2.6790 hn        1 MOL      0.340989
    183 Ca1        -1.2360    4.8930   -2.6900 Ca        1 MOL      1.692260
    184 O25        -3.2330    4.4900   -4.3430 oh        1 MOL     -0.836676
    185 H90        -4.0590    4.3200   -3.8860 ho        1 MOL      0.427549
    186 H91        -3.3560    4.0990   -5.2030 ho        1 MOL      0.427549
    187 O26        -0.6730    3.5870   -5.0460 oh        1 MOL     -0.836676
    188 H92        -1.3730    3.2480   -5.6130 ho        1 MOL      0.427549
    189 H93         0.1130    3.1570   -5.3630 ho        1 MOL      0.427549
    190 O27        -1.0170    6.7620   -4.8340 oh        1 MOL     -0.836676
    191 H94        -0.7370    6.9090   -5.7340 ho        1 MOL      0.427549
    192 H95        -1.2120    7.6470   -4.4980 ho        1 MOL      0.427549
@<TRIPOS>BOND
     1    1    2 1   
     2    1    4 1   
     3    1    5 1   
     4    1    6 1   
     5    2    3 2   
     6    2    7 1   
     7    7    8 1   
     8    7   15 1   
     9    8    9 1   
    10    8   11 1   
    11    8   16 1   
    12    9   10 2   
    13    9   19 1   
    14   11   12 1   
    15   11   17 1   
    16   11   18 1   
    17   12   13 1   
    18   12   14 1   
    19   19   20 1   
    20   19   28 1   
    21   20   21 1   
    22   20   23 1   
    23   20   29 1   
    24   21   22 2   
    25   21   41 1   
    26   23   24 1   
    27   23   30 1   
    28   23   31 1   
    29   24   25 1   
    30   24   32 1   
    31   24   33 1   
    32   25   26 1   
    33   25   34 1   
    34   25   35 1   
    35   26   27 1   
    36   26   36 1   
    37   26   37 1   
    38   27   38 1   
    39   27   39 1   
    40   27   40 1   
    41   41   42 1   
    42   41   49 1   
    43   42   43 1   
    44   42   45 1   
    45   42   50 1   
    46   43   44 2   
    47   43   53 1   
    48   45   46 1   
    49   45   51 1   
    50   45   52 1   
    51   46   47 1   
    52   46   48 1   
    53   53   54 1   
    54   53   57 1   
    55   54   55 1   
    56   54   58 1   
    57   54   59 1   
    58   55   56 2   
    59   55   60 1   
    60   60   61 1   
    61   60   68 1   
    62   61   62 1   
    63   61   64 1   
    64   61   69 1   
    65   62   63 2   
    66   62   72 1   
    67   64   65 1   
    68   64   70 1   
    69   64   71 1   
    70   65   66 1   
    71   65   67 1   
    72   72   73 1   
    73   72   76 1   
    74   73   74 1   
    75   73   77 1   
    76   73   78 1   
    77   74   75 2   
    78   74   79 1   
    79   79   80 1   
    80   79   86 1   
    81   80   81 1   
    82   80   83 1   
    83   80   87 1   
    84   81   82 2   
    85   81   93 1   
    86   83   84 1   
    87   83   85 1   
    88   83   88 1   
    89   84   90 1   
    90   84   91 1   
    91   84   92 1   
    92   85   89 1   
    93   93   94 1   
    94   93  101 1   
    95   94   95 1   
    96   94   97 1   
    97   94  102 1   
    98   95   96 2   
    99   95  112 1   
   100   97   98 1   
   101   97   99 1   
   102   97  103 1   
   103   98  100 1   
   104   98  104 1   
   105   98  105 1   
   106   99  106 1   
   107   99  107 1   
   108   99  108 1   
   109  100  109 1   
   110  100  110 1   
   111  100  111 1   
   112  112  113 1   
   113  112  119 1   
   114  113  114 1   
   115  113  116 1   
   116  113  120 1   
   117  114  115 2   
   118  114  126 1   
   119  116  117 1   
   120  116  118 1   
   121  116  121 1   
   122  117  123 1   
   123  117  124 1   
   124  117  125 1   
   125  118  122 1   
   126  126  127 1   
   127  126  133 1   
   128  127  128 1   
   129  127  130 1   
   130  127  134 1   
   131  128  129 2   
   132  128  140 1   
   133  130  131 1   
   134  130  132 1   
   135  130  135 1   
   136  131  137 1   
   137  131  138 1   
   138  131  139 1   
   139  132  136 1   
   140  140  141 1   
   141  140  149 1   
   142  141  142 1   
   143  141  144 1   
   144  141  150 1   
   145  142  143 2   
   146  142  162 1   
   147  144  145 1   
   148  144  151 1   
   149  144  152 1   
   150  145  146 1   
   151  145  153 1   
   152  145  154 1   
   153  146  147 1   
   154  146  155 1   
   155  146  156 1   
   156  147  148 1   
   157  147  157 1   
   158  147  158 1   
   159  148  159 1   
   160  148  160 1   
   161  148  161 1   
   162  162  163 1   
   163  162  171 1   
   164  163  164 1   
   165  163  166 1   
   166  163  172 1   
   167  164  165 2   
   168  164  177 1   
   169  166  167 1   
   170  166  173 1   
   171  166  174 1   
   172  167  168 1   
   173  167  175 1   
   174  167  176 1   
   175  168  169 1   
   176  168  170 1   
   177  177  178 1   
   178  177  182 1   
   179  178  179 1   
   180  178  180 1   
   181  178  181 1   
   182  184  185 1   
   183  184  186 1   
   184  187  188 1   
   185  187  189 1   
   186  190  191 1   
   187  190  192 1   
@<TRIPOS>SUBSTRUCTURE
     1 MOL         1 TEMP              0 ****  ****    0 ROOT
