@<TRIPOS>MOLECULE
MOL
  189   185     1     0     0
SMALL
resp


@<TRIPOS>ATOM
      1 C1         -4.8750   -4.2830   -2.8890 c3        1 MOL     -0.404606
      2 C2         -5.5200   -3.4460   -1.7880 c         1 MOL      0.949161
      3 O1         -4.9740   -3.1060   -0.7730 o         1 MOL     -0.745572
      4 H1         -3.8470   -4.5150   -2.6130 hc        1 MOL      0.099076
      5 H2         -5.4350   -5.2090   -3.0180 hc        1 MOL      0.099076
      6 H3         -4.8810   -3.7210   -3.8240 hc        1 MOL      0.099076
      7 N1         -6.7750   -3.0440   -2.0340 n         1 MOL     -0.794488
      8 C3         -7.4020   -1.8790   -1.4640 c3        1 MOL      0.319701
      9 C4         -6.3890   -0.6490   -1.3850 c         1 MOL      0.240835
     10 O2         -5.8240   -0.3220   -0.3130 o         1 MOL     -0.300190
     11 C5         -8.1550   -2.1320   -0.1590 c3        1 MOL      0.018746
     12 C6         -7.5000   -2.8830    0.9740 c         1 MOL      0.623088
     13 O3         -6.6630   -2.2850    1.7550 o         1 MOL     -0.675802
     14 O4         -7.9350   -4.0500    1.2120 o         1 MOL     -0.675802
     15 H4         -7.2200   -3.4340   -2.8540 hn        1 MOL      0.334265
     16 H5         -8.2290   -1.5310   -2.0830 h1        1 MOL     -0.007778
     17 H6         -9.0340   -2.7350   -0.3880 hc        1 MOL     -0.015414
     18 H7         -8.5350   -1.1580    0.1690 hc        1 MOL     -0.015414
     19 N2         -6.0760   -0.1530   -2.5570 n         1 MOL     -0.394344
     20 C7         -5.1460    0.9800   -2.8410 c3        1 MOL      0.163503
     21 C8         -5.5940    2.2690   -2.3260 c         1 MOL      0.366697
     22 O5         -5.9770    3.1800   -3.0710 o         1 MOL     -0.543311
     23 C9         -3.6230    0.6740   -2.6100 c3        1 MOL      0.217912
     24 C10        -2.6980    1.7440   -3.1910 c3        1 MOL      0.026964
     25 C11        -3.1910   -0.7100   -3.1060 c3        1 MOL      0.134076
     26 C12        -2.9450    2.2940   -4.5840 c3        1 MOL     -0.224948
     27 H8         -6.4040   -0.6090   -3.4030 hn        1 MOL      0.262568
     28 H9         -5.1790    1.0930   -3.9220 h1        1 MOL     -0.004004
     29 H10        -3.5530    0.6830   -1.5230 hc        1 MOL     -0.234746
     30 H11        -1.6880    1.3380   -3.2120 hc        1 MOL      0.046022
     31 H12        -2.7300    2.5910   -2.5070 hc        1 MOL      0.046022
     32 H13        -3.8540   -1.4930   -2.7510 hc        1 MOL     -0.070058
     33 H14        -3.2790   -0.7310   -4.1880 hc        1 MOL     -0.070058
     34 H15        -2.1490   -0.8600   -2.8170 hc        1 MOL     -0.070058
     35 H16        -3.8900    2.8300   -4.5540 hc        1 MOL      0.036536
     36 H17        -2.0870    2.9160   -4.8460 hc        1 MOL      0.036536
     37 H18        -2.9730    1.4920   -5.3250 hc        1 MOL      0.036536
     38 N3         -5.6350    2.5010   -0.9780 n         1 MOL     -0.109245
     39 C13        -6.1430    3.6860   -0.2920 c3        1 MOL      0.096610
     40 C14        -5.1170    4.8590   -0.1740 c         1 MOL      0.510876
     41 O6         -5.5460    6.0010   -0.4960 o         1 MOL     -0.578585
     42 C15        -6.9480    3.4240    0.9230 c3        1 MOL     -0.338757
     43 C16        -8.0890    2.3210    0.9240 c         1 MOL      0.780026
     44 O7         -9.0010    2.3830    0.0960 o         1 MOL     -0.716784
     45 O8         -8.1300    1.4040    1.7450 o         1 MOL     -0.716784
     46 H19        -5.4780    1.6480   -0.4510 hn        1 MOL      0.136471
     47 H20        -6.9270    4.1640   -0.8820 h1        1 MOL      0.051731
     48 H21        -7.3630    4.3630    1.2960 hc        1 MOL      0.070606
     49 H22        -6.3730    3.2040    1.8200 hc        1 MOL      0.070606
     50 N4         -3.8690    4.7640    0.3120 n         1 MOL     -0.486682
     51 C17        -3.2750    3.6730    1.0490 c3        1 MOL      0.061637
     52 C18        -1.9300    4.0490    1.7960 c         1 MOL      0.594707
     53 O9         -1.4940    5.2170    1.6520 o         1 MOL     -0.609630
     54 H23        -3.2760    5.5730    0.2760 hn        1 MOL      0.296028
     55 H24        -3.0130    2.9120    0.3180 h1        1 MOL      0.089862
     56 H25        -3.9630    3.1280    1.6930 h1        1 MOL      0.089862
     57 N5         -1.3120    3.1270    2.5350 n         1 MOL     -0.590523
     58 C19        -1.6320    1.6300    2.6950 c3        1 MOL      0.067592
     59 C20        -2.0180    0.9410    1.2990 c         1 MOL      0.067845
     60 O10        -3.1120    0.4660    1.0660 o         1 MOL     -0.433624
     61 C21        -2.6390    1.4760    3.8340 c3        1 MOL     -0.064388
     62 C22        -3.1150    0.0510    4.2030 c         1 MOL      0.650639
     63 O11        -3.8330   -0.1480    5.1950 o         1 MOL     -0.680408
     64 O12        -2.7360   -0.8510    3.4540 o         1 MOL     -0.680408
     65 H26        -0.5380    3.4860    3.0770 hn        1 MOL      0.317425
     66 H27        -0.7200    1.2040    3.1000 h1        1 MOL      0.136013
     67 H28        -3.4840    2.1180    3.5950 hc        1 MOL      0.029169
     68 H29        -2.2970    1.9310    4.7660 hc        1 MOL      0.029169
     69 N6         -1.0700    0.8360    0.3680 n         1 MOL     -0.037976
     70 C23         0.3140    1.2940    0.3630 c3        1 MOL     -0.171116
     71 C24         0.5540    2.6520   -0.2840 c         1 MOL      0.451411
     72 O13        -0.3100    3.0650   -1.0490 o         1 MOL     -0.512544
     73 H30        -1.3050    0.3480   -0.4890 hn        1 MOL      0.279876
     74 H31         0.9040    0.5770   -0.2120 h1        1 MOL      0.067686
     75 H32         0.6860    1.2570    1.3900 h1        1 MOL      0.067686
     76 N7          1.7360    3.2290   -0.0780 n         1 MOL     -0.331287
     77 C25         2.2740    4.4050   -0.7700 c3        1 MOL      0.119831
     78 C26         3.2330    4.0600   -1.9560 c         1 MOL      0.250740
     79 O14         4.1460    4.7880   -2.4610 o         1 MOL     -0.484992
     80 C27         2.8920    5.3410    0.2880 c3        1 MOL     -0.036342
     81 C28         1.8870    5.5790    1.4110 c3        1 MOL     -0.133803
     82 C29         2.4700    6.4440    2.5030 c         1 MOL      0.599672
     83 N8          1.5900    6.9440    3.3730 n         1 MOL     -0.780802
     84 O15         3.6500    6.5700    2.6900 o         1 MOL     -0.548775
     85 H33         2.4120    2.7080    0.4580 hn        1 MOL      0.246009
     86 H34         1.4000    4.9350   -1.1270 h1        1 MOL      0.086386
     87 H35         3.0430    6.3250   -0.1500 hc        1 MOL      0.012349
     88 H36         3.8370    4.8720    0.5910 hc        1 MOL      0.012349
     89 H37         1.6590    4.6020    1.8580 hc        1 MOL      0.086651
     90 H38         1.0620    6.0620    0.8970 hc        1 MOL      0.086651
     91 H39         0.6090    6.7710    3.2250 hn        1 MOL      0.353258
     92 H40         1.9190    7.6430    4.0200 hn        1 MOL      0.353258
     93 N9          2.9800    2.8430   -2.3650 n         1 MOL      0.012944
     94 C30         3.5890    2.2310   -3.5560 c3        1 MOL     -0.331776
     95 C31         4.9420    1.6260   -3.2710 c         1 MOL      0.573220
     96 O16         5.6620    1.3340   -4.2060 o         1 MOL     -0.532609
     97 C32         2.6800    1.2620   -4.3240 c3        1 MOL      0.223988
     98 C33         1.4810    1.9960   -4.9720 c3        1 MOL     -0.218298
     99 C34         2.1480    0.0570   -3.4990 c3        1 MOL     -0.218298
    100 H41         2.2180    2.3620   -1.9060 hn        1 MOL      0.078220
    101 H42         3.8620    3.0240   -4.2500 h1        1 MOL      0.173735
    102 H43         3.2610    0.9240   -5.1880 hc        1 MOL      0.020631
    103 H44         0.9900    2.5970   -4.2000 hc        1 MOL      0.052577
    104 H45         1.9260    2.5680   -5.7870 hc        1 MOL      0.052577
    105 H46         0.7190    1.3540   -5.4230 hc        1 MOL      0.052577
    106 H47         1.6070   -0.6400   -4.1250 hc        1 MOL      0.052577
    107 H48         2.9660   -0.5170   -3.0720 hc        1 MOL      0.052577
    108 H49         1.4520    0.4350   -2.7470 hc        1 MOL      0.052577
    109 N10         5.3670    1.5350   -1.9820 n         1 MOL     -0.265667
    110 C35         6.7190    1.0130   -1.6050 c3        1 MOL     -0.048629
    111 C36         6.7800   -0.5130   -1.1850 c         1 MOL      0.585132
    112 O17         7.6490   -1.2670   -1.6090 o         1 MOL     -0.533273
    113 C37         7.1230    1.8470   -0.4140 c3        1 MOL     -0.225479
    114 C38         7.0230    3.3610   -0.5030 c         1 MOL      0.543336
    115 N11         6.5590    3.9230    0.5380 n         1 MOL     -0.640272
    116 O18         7.4810    4.0420   -1.4570 o         1 MOL     -0.537592
    117 H50         4.7060    1.6870   -1.2330 hn        1 MOL      0.172031
    118 H51         7.4410    1.0320   -2.4200 h1        1 MOL      0.098429
    119 H52         8.1380    1.5500   -0.1620 hc        1 MOL      0.133644
    120 H53         6.4600    1.4640    0.3590 hc        1 MOL      0.133644
    121 H54         5.9910    3.3710    1.1610 hn        1 MOL      0.335606
    122 H55         6.5660    4.9290    0.4480 hn        1 MOL      0.335606
    123 N12         5.8120   -0.9280   -0.3010 n         1 MOL     -0.672468
    124 C39         5.9590   -2.2220    0.3720 c3        1 MOL      0.607000
    125 C40         4.5930   -2.9670    0.4160 c         1 MOL      0.236452
    126 O19         3.4940   -2.4120    0.2440 o         1 MOL     -0.470084
    127 C41         6.4100   -2.0560    1.8060 c3        1 MOL     -0.215024
    128 C42         7.5540   -1.1350    2.0100 ca        1 MOL     -0.022259
    129 C43         7.3940    0.1560    2.5670 ca        1 MOL     -0.102898
    130 C44         8.8260   -1.5190    1.4980 ca        1 MOL     -0.102898
    131 C45         8.4490    1.0470    2.4850 ca        1 MOL     -0.268013
    132 C46         9.8980   -0.6440    1.5010 ca        1 MOL     -0.268013
    133 C47         9.7040    0.6420    1.9830 ca        1 MOL      0.320155
    134 O20        10.6660    1.5360    1.7740 oh        1 MOL     -0.499723
    135 H56         5.0520   -0.3140   -0.0450 hn        1 MOL      0.266584
    136 H57         6.5320   -2.9510   -0.2130 h1        1 MOL     -0.045479
    137 H58         6.6140   -3.0930    2.0860 hc        1 MOL      0.096553
    138 H59         5.5970   -1.6120    2.3700 hc        1 MOL      0.096553
    139 H60         6.3700    0.4330    2.7960 ha        1 MOL      0.106562
    140 H61         8.8530   -2.4190    0.9090 ha        1 MOL      0.106562
    141 H62         8.3570    2.0790    2.7960 ha        1 MOL      0.132023
    142 H63        10.8690   -0.8580    1.0810 ha        1 MOL      0.132023
    143 H64        11.4420    1.0460    1.5160 ho        1 MOL      0.371463
    144 N13         4.6300   -4.2810    0.6530 n         1 MOL     -0.462613
    145 C48         3.4560   -5.1820    1.0250 c3        1 MOL      0.051930
    146 C49         2.4840   -5.4020   -0.1660 c         1 MOL      0.514815
    147 O21         2.0490   -6.5340   -0.3460 o         1 MOL     -0.552153
    148 C50         2.7440   -4.6920    2.2550 c3        1 MOL      0.291367
    149 C51         3.7440   -4.3900    3.4410 c3        1 MOL     -0.255660
    150 C52         3.0140   -4.2780    4.8150 c         1 MOL      0.641834
    151 O22         2.2520   -5.2440    5.1250 o         1 MOL     -0.704544
    152 O23         3.1120   -3.2080    5.5340 o         1 MOL     -0.704544
    153 H65         5.5170   -4.7600    0.7310 hn        1 MOL      0.284717
    154 H66         3.8890   -6.1430    1.3060 h1        1 MOL      0.035929
    155 H67         2.1210   -5.5470    2.5200 hc        1 MOL     -0.009652
    156 H68         2.0240   -3.8900    2.0750 hc        1 MOL     -0.009652
    157 H69         4.2160   -3.4180    3.2960 hc        1 MOL     -0.002901
    158 H70         4.5710   -5.0940    3.5240 hc        1 MOL     -0.002901
    159 N14         2.3300   -4.4430   -1.0470 n         1 MOL     -0.588016
    160 C53         1.1320   -4.5020   -1.8990 c3        1 MOL     -0.073224
    161 C54         1.3590   -5.2160   -3.2680 c         1 MOL      0.439305
    162 O24         0.4120   -5.4960   -4.0000 o         1 MOL     -0.527936
    163 C55         0.4550   -3.1510   -2.1280 c3        1 MOL     -0.105353
    164 C56         0.2080   -2.2480   -0.9070 c3        1 MOL      0.228214
    165 C57        -0.9500   -2.8010   -0.0270 c         1 MOL      0.595593
    166 O25        -2.0320   -2.2060   -0.0520 o         1 MOL     -0.647340
    167 O26        -0.6880   -3.7450    0.7850 o         1 MOL     -0.647340
    168 H71         2.7930   -3.5480   -0.9720 hn        1 MOL      0.371349
    169 H72         0.4220   -5.1690   -1.4030 h1        1 MOL      0.179305
    170 H73        -0.4900   -3.4100   -2.6090 hc        1 MOL      0.033434
    171 H74         1.0560   -2.6050   -2.8560 hc        1 MOL      0.033434
    172 H75        -0.1140   -1.2770   -1.2790 hc        1 MOL     -0.062443
    173 H76         1.1320   -1.9600   -0.4030 hc        1 MOL     -0.062443
    174 N15         2.6120   -5.6320   -3.4930 n         1 MOL     -0.161542
    175 C58         2.9880   -6.3610   -4.7470 c3        1 MOL     -0.304907
    176 H77         4.0730   -6.4600   -4.7970 h1        1 MOL      0.111633
    177 H78         2.5340   -7.3520   -4.7430 h1        1 MOL      0.111633
    178 H79         2.6340   -5.8020   -5.6130 h1        1 MOL      0.111633
    179 H80         3.3520   -5.3620   -2.8760 hn        1 MOL      0.224869
    180 Ca1        -4.2070   -1.8830    1.4380 Ca        1 MOL      1.754122
    181 O27        -5.0960   -2.5970    4.3610 oh        1 MOL     -0.895066
    182 H81        -4.7290   -3.3060    4.8800 ho        1 MOL      0.413234
    183 H82        -4.7860   -1.7930    4.7810 ho        1 MOL      0.413234
    184 O28        -3.0770   -4.2860    2.1230 oh        1 MOL     -0.895066
    185 H83        -3.2630   -5.1750    2.4160 ho        1 MOL      0.413234
    186 H84        -2.1890   -4.3360    1.7550 ho        1 MOL      0.413234
    187 O29        -6.0210   -0.0210    2.6520 oh        1 MOL     -0.895066
    188 H85        -6.6510    0.5580    2.2170 ho        1 MOL      0.413234
    189 H86        -6.4360   -0.8840    2.6330 ho        1 MOL      0.413234
@<TRIPOS>BOND
     1    1    2 1   
     2    1    4 1   
     3    1    5 1   
     4    1    6 1   
     5    2    3 2   
     6    2    7 1   
     7    7    8 1   
     8    7   15 1   
     9    8    9 1   
    10    8   11 1   
    11    8   16 1   
    12    9   10 2   
    13    9   19 1   
    14   11   12 1   
    15   11   17 1   
    16   11   18 1   
    17   12   13 1   
    18   12   14 1   
    19   19   20 1   
    20   19   27 1   
    21   20   21 1   
    22   20   23 1   
    23   20   28 1   
    24   21   22 2   
    25   21   38 1   
    26   23   24 1   
    27   23   25 1   
    28   23   29 1   
    29   24   26 1   
    30   24   30 1   
    31   24   31 1   
    32   25   32 1   
    33   25   33 1   
    34   25   34 1   
    35   26   35 1   
    36   26   36 1   
    37   26   37 1   
    38   38   39 1   
    39   38   46 1   
    40   39   40 1   
    41   39   42 1   
    42   39   47 1   
    43   40   41 2   
    44   40   50 1   
    45   42   43 1   
    46   42   48 1   
    47   42   49 1   
    48   43   44 1   
    49   43   45 1   
    50   50   51 1   
    51   50   54 1   
    52   51   52 1   
    53   51   55 1   
    54   51   56 1   
    55   52   53 2   
    56   52   57 1   
    57   57   58 1   
    58   57   65 1   
    59   58   59 1   
    60   58   61 1   
    61   58   66 1   
    62   59   60 2   
    63   59   69 1   
    64   61   62 1   
    65   61   67 1   
    66   61   68 1   
    67   62   63 1   
    68   62   64 1   
    69   69   70 1   
    70   69   73 1   
    71   70   71 1   
    72   70   74 1   
    73   70   75 1   
    74   71   72 2   
    75   71   76 1   
    76   76   77 1   
    77   76   85 1   
    78   77   78 1   
    79   77   80 1   
    80   77   86 1   
    81   78   79 2   
    82   78   93 1   
    83   80   81 1   
    84   80   87 1   
    85   80   88 1   
    86   81   82 1   
    87   81   89 1   
    88   81   90 1   
    89   82   83 1   
    90   82   84 2   
    91   83   91 1   
    92   83   92 1   
    93   93   94 1   
    94   93  100 1   
    95   94   95 1   
    96   94   97 1   
    97   94  101 1   
    98   95   96 2   
    99   95  109 1   
   100   97   98 1   
   101   97   99 1   
   102   97  102 1   
   103   98  103 1   
   104   98  104 1   
   105   98  105 1   
   106   99  106 1   
   107   99  107 1   
   108   99  108 1   
   109  109  110 1   
   110  109  117 1   
   111  110  111 1   
   112  110  113 1   
   113  110  118 1   
   114  111  112 2   
   115  111  123 1   
   116  113  114 1   
   117  113  119 1   
   118  113  120 1   
   119  114  115 1   
   120  114  116 2   
   121  115  121 1   
   122  115  122 1   
   123  123  124 1   
   124  123  135 1   
   125  124  125 1   
   126  124  127 1   
   127  124  136 1   
   128  125  126 2   
   129  125  144 1   
   130  127  128 1   
   131  127  137 1   
   132  127  138 1   
   133  128  129 ar  
   134  128  130 ar  
   135  129  131 ar  
   136  129  139 1   
   137  130  132 ar  
   138  130  140 1   
   139  131  133 ar  
   140  131  141 1   
   141  132  133 ar  
   142  132  142 1   
   143  133  134 1   
   144  134  143 1   
   145  144  145 1   
   146  144  153 1   
   147  145  146 1   
   148  145  148 1   
   149  145  154 1   
   150  146  147 2   
   151  146  159 1   
   152  148  149 1   
   153  148  155 1   
   154  148  156 1   
   155  149  150 1   
   156  149  157 1   
   157  149  158 1   
   158  150  151 1   
   159  150  152 1   
   160  159  160 1   
   161  159  168 1   
   162  160  161 1   
   163  160  163 1   
   164  160  169 1   
   165  161  162 2   
   166  161  174 1   
   167  163  164 1   
   168  163  170 1   
   169  163  171 1   
   170  164  165 1   
   171  164  172 1   
   172  164  173 1   
   173  165  166 1   
   174  165  167 1   
   175  174  175 1   
   176  174  179 1   
   177  175  176 1   
   178  175  177 1   
   179  175  178 1   
   180  181  182 1   
   181  181  183 1   
   182  184  185 1   
   183  184  186 1   
   184  187  188 1   
   185  187  189 1   
@<TRIPOS>SUBSTRUCTURE
     1 MOL         1 TEMP              0 ****  ****    0 ROOT
