@<TRIPOS>MOLECULE
MOL
  188   182     1     0     0
SMALL
resp


@<TRIPOS>ATOM
      1 C1          5.5880    3.7440    0.6090 c3        1 MOL     -0.326209
      2 C2          6.5510    2.8350   -0.2400 c         1 MOL      0.579805
      3 O1          6.0730    1.9210   -0.8540 o         1 MOL     -0.452786
      4 H1          6.0060    3.8810    1.6070 hc        1 MOL      0.092282
      5 H2          5.4820    4.7140    0.1230 hc        1 MOL      0.092282
      6 H3          4.6120    3.2650    0.6870 hc        1 MOL      0.092282
      7 N1          7.8860    3.1400   -0.4270 n         1 MOL     -0.617446
      8 C3          9.0040    2.4710   -1.1290 c3        1 MOL      0.423755
      9 C4          9.1970    1.0050   -0.5980 c         1 MOL      0.326337
     10 O2          9.8050    0.1490   -1.2860 o         1 MOL     -0.472916
     11 C5          8.8910    2.5380   -2.6140 c3        1 MOL     -0.239141
     12 C6         10.1960    2.2900   -3.3480 c         1 MOL      0.657743
     13 O3         10.2340    1.6000   -4.4410 o         1 MOL     -0.649967
     14 O4         11.1960    2.8260   -2.8470 o         1 MOL     -0.649967
     15 H4          8.0780    4.0790   -0.1060 hn        1 MOL      0.290466
     16 H5          9.9080    3.0050   -0.8620 h1        1 MOL     -0.044517
     17 H6          8.4780    3.5060   -2.8850 hc        1 MOL      0.053739
     18 H7          8.1570    1.7810   -2.9060 hc        1 MOL      0.053739
     19 N2          8.7470    0.7290    0.5960 n         1 MOL     -0.272127
     20 C7          8.6600   -0.6000    1.3030 c3        1 MOL      0.108027
     21 C8          7.2450   -1.0460    1.7260 c         1 MOL      0.489557
     22 O5          7.1130   -1.9420    2.5910 o         1 MOL     -0.584779
     23 C9          9.7410   -0.7170    2.4880 c3        1 MOL      0.013761
     24 C10        11.1520   -0.3890    1.9860 c3        1 MOL     -0.156414
     25 C11        12.2330   -0.3790    3.1250 c3        1 MOL      0.060988
     26 C12        12.2980   -1.6830    3.9520 c3        1 MOL      0.074590
     27 N3         13.3170   -1.5750    4.9860 n4        1 MOL     -0.185042
     28 H8          8.6080    1.5350    1.1750 hn        1 MOL      0.176358
     29 H9          8.9620   -1.4280    0.6660 h1        1 MOL      0.102042
     30 H10         9.7150   -1.7280    2.8840 hc        1 MOL     -0.000677
     31 H11         9.5020    0.0440    3.2370 hc        1 MOL     -0.000677
     32 H12        11.1380    0.6000    1.5230 hc        1 MOL      0.075479
     33 H13        11.3040   -1.1810    1.2440 hc        1 MOL      0.075479
     34 H14        12.0170    0.3250    3.9370 hc        1 MOL      0.008510
     35 H15        13.1860   -0.1280    2.6760 hc        1 MOL      0.008510
     36 H16        12.6270   -2.5390    3.3740 hx        1 MOL      0.053750
     37 H17        11.3280   -1.8170    4.4350 hx        1 MOL      0.053750
     38 H18        13.6160   -2.5030    5.2310 hn        1 MOL      0.208006
     39 H19        14.0140   -0.9220    4.6580 hn        1 MOL      0.208006
     40 H20        12.9220   -1.1440    5.8040 hn        1 MOL      0.208006
     41 N4          6.1580   -0.5600    1.0310 n         1 MOL     -0.532502
     42 C13         4.8120   -1.1470    1.2070 c3        1 MOL      0.155178
     43 C14         4.6480   -2.4100    0.3550 c         1 MOL      0.514590
     44 O6          4.8500   -2.3960   -0.8890 o         1 MOL     -0.458489
     45 C15         3.7890   -0.0550    0.9170 c3        1 MOL     -0.060593
     46 C16         2.4000   -0.4790    1.1680 c         1 MOL      0.493743
     47 O7          1.8880   -0.4050    2.2600 o         1 MOL     -0.678818
     48 O8          1.8420   -1.0780    0.2780 o         1 MOL     -0.678818
     49 H21         6.3800    0.0520    0.2570 hn        1 MOL      0.270770
     50 H22         4.6980   -1.3910    2.2680 h1        1 MOL      0.062126
     51 H23         3.8660    0.3480   -0.0980 hc        1 MOL      0.024630
     52 H24         4.0010    0.7720    1.5920 hc        1 MOL      0.024630
     53 N5          4.2190   -3.5350    1.0240 n         1 MOL     -0.299987
     54 C17         3.8640   -4.8110    0.3520 c3        1 MOL     -0.155272
     55 C18         3.0970   -4.6950   -1.0180 c         1 MOL      0.531548
     56 O9          3.3820   -5.4360   -1.9350 o         1 MOL     -0.487944
     57 H25         4.1670   -3.4370    2.0280 hn        1 MOL      0.248241
     58 H26         3.3220   -5.3800    1.1110 h1        1 MOL      0.097421
     59 H27         4.7950   -5.3350    0.1300 h1        1 MOL      0.097421
     60 N6          2.0830   -3.7890   -1.1320 n         1 MOL     -0.457733
     61 C19         1.4130   -3.4900   -2.3910 c3        1 MOL      0.067407
     62 C20         1.5680   -1.9900   -2.8080 c         1 MOL      0.319397
     63 O10         0.6770   -1.3900   -3.4570 o         1 MOL     -0.482231
     64 C21        -0.0650   -4.0100   -2.4020 c3        1 MOL     -0.283905
     65 C22        -1.1130   -3.4610   -1.4890 c         1 MOL      0.651616
     66 N7         -2.2540   -4.1010   -1.5440 n         1 MOL     -0.723398
     67 O11        -0.8060   -2.5240   -0.7260 o         1 MOL     -0.660667
     68 H28         1.9790   -3.0110   -0.4820 hn        1 MOL      0.285176
     69 H29         1.9450   -4.0710   -3.1450 h1        1 MOL      0.113730
     70 H30        -0.0160   -5.0620   -2.1410 hc        1 MOL      0.109066
     71 H31        -0.5800   -4.0650   -3.3670 hc        1 MOL      0.109066
     72 H32        -2.2510   -5.0450   -1.9180 hn        1 MOL      0.349740
     73 H33        -2.9300   -3.8730   -0.8390 hn        1 MOL      0.349740
     74 N8          2.6640   -1.3930   -2.3970 n         1 MOL     -0.077501
     75 C23         3.1900   -0.1090   -2.8710 c3        1 MOL     -0.208209
     76 C24         2.4750    1.2070   -2.4610 c         1 MOL      0.571089
     77 O12         2.8270    2.2570   -2.9320 o         1 MOL     -0.508944
     78 H34         3.3110   -2.0030   -1.9170 hn        1 MOL      0.194815
     79 H35         3.3180   -0.2020   -3.9430 h1        1 MOL      0.110889
     80 H36         4.1280   -0.0470   -2.3180 h1        1 MOL      0.110889
     81 N9          1.3790    1.0440   -1.6710 n         1 MOL     -0.346554
     82 C25         0.4500    2.1670   -1.3000 c3        1 MOL     -0.089209
     83 C26        -0.9570    1.7310   -0.8670 c         1 MOL      0.430503
     84 O13        -1.0750    0.8690    0.0480 o         1 MOL     -0.519806
     85 C27         1.0580    2.9110   -0.0890 c3        1 MOL     -0.116537
     86 C28         0.2690    4.0660    0.4690 ca        1 MOL     -0.003954
     87 C29         0.0330    5.2230   -0.2920 ca        1 MOL     -0.143211
     88 C30        -0.3020    3.9650    1.7740 ca        1 MOL     -0.143211
     89 C31        -0.7580    6.2330    0.2100 ca        1 MOL     -0.235947
     90 C32        -1.1740    4.9990    2.2270 ca        1 MOL     -0.235947
     91 C33        -1.2990    6.1870    1.4940 ca        1 MOL      0.361116
     92 O14        -1.7210    7.3430    2.1530 oh        1 MOL     -0.509213
     93 H37         1.2900    0.1460   -1.2170 hn        1 MOL      0.274858
     94 H38         0.4340    2.8690   -2.1310 h1        1 MOL      0.111191
     95 H39         2.0490    3.2630   -0.3780 hc        1 MOL      0.098362
     96 H40         1.0790    2.1630    0.6970 hc        1 MOL      0.098362
     97 H41         0.3040    5.3310   -1.3280 ha        1 MOL      0.142902
     98 H42        -0.0480    3.1510    2.4370 ha        1 MOL      0.142902
     99 H43        -0.8650    7.1380   -0.3840 ha        1 MOL      0.132688
    100 H44        -1.4270    5.0020    3.2740 ha        1 MOL      0.132688
    101 H45        -2.1630    7.1550    2.9910 ho        1 MOL      0.370584
    102 N10        -1.9950    2.4070   -1.4100 n         1 MOL     -0.270088
    103 C34        -3.3670    2.1290   -0.9770 c3        1 MOL     -0.042907
    104 C35        -3.7780    0.7230   -1.4810 c         1 MOL      0.230422
    105 O15        -4.4120   -0.0310   -0.7500 o         1 MOL     -0.506281
    106 C36        -4.4160    3.1650   -1.3680 c3        1 MOL      0.015151
    107 C37        -4.0320    4.4750   -0.6220 c3        1 MOL      0.458109
    108 C38        -5.7270    2.7520   -0.7860 c3        1 MOL     -0.263024
    109 C39        -5.0680    5.5580   -0.5960 c3        1 MOL     -0.356857
    110 H46        -1.8980    3.0760   -2.1530 hn        1 MOL      0.258261
    111 H47        -3.3420    2.0050    0.1070 h1        1 MOL      0.143698
    112 H48        -4.5330    3.2890   -2.4500 hc        1 MOL      0.011627
    113 H49        -3.2420    4.9090   -1.2470 hc        1 MOL     -0.120231
    114 H50        -3.5910    4.2650    0.3470 hc        1 MOL     -0.120231
    115 H51        -5.6150    2.6680    0.2910 hc        1 MOL      0.069863
    116 H52        -6.5600    3.4450   -0.9220 hc        1 MOL      0.069863
    117 H53        -5.9720    1.7790   -1.2150 hc        1 MOL      0.069863
    118 H54        -4.6450    6.5410   -0.3900 hc        1 MOL      0.080859
    119 H55        -5.5880    5.5960   -1.5510 hc        1 MOL      0.080859
    120 H56        -5.7400    5.2500    0.2110 hc        1 MOL      0.080859
    121 N11        -3.2670    0.2900   -2.6250 n         1 MOL     -0.057298
    122 C40        -3.4230   -1.0230   -3.1320 c3        1 MOL     -0.036997
    123 C41        -4.9280   -1.4940   -3.0820 c         1 MOL      0.260832
    124 O16        -5.1710   -2.6700   -2.6480 o         1 MOL     -0.473424
    125 C42        -2.7230   -1.2290   -4.4490 c3        1 MOL      0.232143
    126 O17        -1.5280   -0.3670   -4.6640 oh        1 MOL     -0.610443
    127 H57        -2.6460    0.9390   -3.0810 hn        1 MOL      0.142043
    128 H58        -2.9470   -1.6280   -2.3570 h1        1 MOL      0.145725
    129 H59        -3.3990   -1.2270   -5.3070 h1        1 MOL      0.013768
    130 H60        -2.3420   -2.2450   -4.3940 h1        1 MOL      0.013768
    131 H61        -0.7870   -0.6930   -4.1670 ho        1 MOL      0.377355
    132 N12        -5.8100   -0.6570   -3.6750 n         1 MOL     -0.095193
    133 C43        -7.2540   -0.9310   -3.9430 c3        1 MOL      0.035376
    134 C44        -8.1110   -1.3280   -2.6700 c         1 MOL      0.488409
    135 O18        -9.3050   -1.5030   -2.7680 o         1 MOL     -0.536767
    136 C45        -7.2640   -2.1210   -4.9170 c3        1 MOL     -0.344793
    137 H62        -5.4470    0.1850   -4.0890 hn        1 MOL      0.186815
    138 H63        -7.7430   -0.1090   -4.4580 h1        1 MOL      0.074739
    139 H64        -8.2480   -2.2980   -5.3430 hc        1 MOL      0.110274
    140 H65        -6.4430   -1.9700   -5.6160 hc        1 MOL      0.110274
    141 H66        -6.9800   -2.9950   -4.3230 hc        1 MOL      0.110274
    142 N13        -7.4780   -1.3490   -1.5100 n         1 MOL     -0.513425
    143 C46        -8.0960   -1.8680   -0.3000 c3        1 MOL      0.645859
    144 C47        -8.4170   -0.7410    0.7090 c         1 MOL      0.354051
    145 O19        -7.8240    0.3290    0.6210 o         1 MOL     -0.432717
    146 C48        -7.0550   -2.8160    0.2640 c3        1 MOL     -0.336994
    147 H67        -6.5330   -0.9970   -1.5210 hn        1 MOL      0.205985
    148 H68        -8.9880   -2.4480   -0.4990 h1        1 MOL     -0.062011
    149 H69        -7.4910   -3.2520    1.1620 hc        1 MOL      0.066454
    150 H70        -6.9180   -3.5870   -0.4930 hc        1 MOL      0.066454
    151 H71        -6.1790   -2.3340    0.6960 hc        1 MOL      0.066454
    152 N14        -9.3460   -0.9940    1.5940 n         1 MOL     -0.613215
    153 C49        -9.7150   -0.0220    2.6220 c3        1 MOL      0.099272
    154 C50       -10.1760    1.3700    2.0680 c         1 MOL      0.369486
    155 O20       -10.1170    2.3400    2.8000 o         1 MOL     -0.504881
    156 C51        -8.7450    0.0170    3.7160 c3        1 MOL      0.221766
    157 C52        -8.2760   -1.3630    4.1880 c3        1 MOL     -0.226409
    158 C53        -7.5150   -1.2710    5.5240 c         1 MOL      0.653455
    159 O21        -8.0930   -1.4290    6.6390 o         1 MOL     -0.667813
    160 O22        -6.3070   -0.9830    5.5500 o         1 MOL     -0.667813
    161 H72        -9.7800   -1.9050    1.6230 hn        1 MOL      0.330992
    162 H73       -10.6630   -0.4010    2.9940 h1        1 MOL      0.058447
    163 H74        -9.3590    0.4590    4.5110 hc        1 MOL     -0.016020
    164 H75        -7.8650    0.6320    3.5300 hc        1 MOL     -0.016020
    165 H76        -7.5580   -1.6920    3.4320 hc        1 MOL      0.009289
    166 H77        -9.0020   -2.1810    4.2330 hc        1 MOL      0.009289
    167 N15       -10.6300    1.4480    0.8550 n         1 MOL     -0.172758
    168 C54       -10.8880    2.6920    0.1420 c3        1 MOL     -0.291679
    169 H78       -11.3380    2.4690   -0.8260 h1        1 MOL      0.125046
    170 H79       -11.5690    3.3120    0.7250 h1        1 MOL      0.125046
    171 H80        -9.9500    3.2260   -0.0090 h1        1 MOL      0.125046
    172 H81       -10.6710    0.5690    0.3720 hn        1 MOL      0.196458
    173 Ca1        -0.5300   -1.2910    1.6780 Ca        1 MOL      1.843287
    174 O23        -3.1210   -0.8220    1.5760 oh        1 MOL     -0.873483
    175 H82        -3.7890   -1.3460    2.0190 ho        1 MOL      0.428528
    176 H83        -3.6170   -0.1800    1.0700 ho        1 MOL      0.428528
    177 O24        -0.6860   -1.9960    4.3610 oh        1 MOL     -0.873483
    178 H84        -1.1460   -1.5760    5.0960 ho        1 MOL      0.428528
    179 H85        -0.4310   -2.8500    4.7020 ho        1 MOL      0.428528
    180 O25        -1.2350    0.7060    3.2430 oh        1 MOL     -0.873483
    181 H86        -2.1450    0.9810    3.3030 ho        1 MOL      0.428528
    182 H87        -0.8350    0.9820    4.0680 ho        1 MOL      0.428528
    183 O26         1.1260   -3.3830    2.0500 oh        1 MOL     -0.873483
    184 H88         1.9360   -3.5360    2.5310 ho        1 MOL      0.428528
    185 H89         0.8200   -4.2610    1.8130 ho        1 MOL      0.428528
    186 O27        -1.9990   -3.8220    1.6610 oh        1 MOL     -0.873483
    187 H90        -1.8390   -4.7220    1.9470 ho        1 MOL      0.428528
    188 H91        -2.9090   -3.8350    1.3430 ho        1 MOL      0.428528
@<TRIPOS>BOND
     1    1    2 1   
     2    1    4 1   
     3    1    5 1   
     4    1    6 1   
     5    2    3 2   
     6    2    7 1   
     7    7    8 1   
     8    7   15 1   
     9    8    9 1   
    10    8   11 1   
    11    8   16 1   
    12    9   10 2   
    13    9   19 1   
    14   11   12 1   
    15   11   17 1   
    16   11   18 1   
    17   12   13 1   
    18   12   14 1   
    19   19   20 1   
    20   19   28 1   
    21   20   21 1   
    22   20   23 1   
    23   20   29 1   
    24   21   22 2   
    25   21   41 1   
    26   23   24 1   
    27   23   30 1   
    28   23   31 1   
    29   24   25 1   
    30   24   32 1   
    31   24   33 1   
    32   25   26 1   
    33   25   34 1   
    34   25   35 1   
    35   26   27 1   
    36   26   36 1   
    37   26   37 1   
    38   27   38 1   
    39   27   39 1   
    40   27   40 1   
    41   41   42 1   
    42   41   49 1   
    43   42   43 1   
    44   42   45 1   
    45   42   50 1   
    46   43   44 2   
    47   43   53 1   
    48   45   46 1   
    49   45   51 1   
    50   45   52 1   
    51   46   47 1   
    52   46   48 1   
    53   53   54 1   
    54   53   57 1   
    55   54   55 1   
    56   54   58 1   
    57   54   59 1   
    58   55   56 2   
    59   55   60 1   
    60   60   61 1   
    61   60   68 1   
    62   61   62 1   
    63   61   64 1   
    64   61   69 1   
    65   62   63 2   
    66   62   74 1   
    67   64   65 1   
    68   64   70 1   
    69   64   71 1   
    70   65   66 1   
    71   65   67 2   
    72   66   72 1   
    73   66   73 1   
    74   74   75 1   
    75   74   78 1   
    76   75   76 1   
    77   75   79 1   
    78   75   80 1   
    79   76   77 2   
    80   76   81 1   
    81   81   82 1   
    82   81   93 1   
    83   82   83 1   
    84   82   85 1   
    85   82   94 1   
    86   83   84 2   
    87   83  102 1   
    88   85   86 1   
    89   85   95 1   
    90   85   96 1   
    91   86   87 ar  
    92   86   88 ar  
    93   87   89 ar  
    94   87   97 1   
    95   88   90 ar  
    96   88   98 1   
    97   89   91 ar  
    98   89   99 1   
    99   90   91 ar  
   100   90  100 1   
   101   91   92 1   
   102   92  101 1   
   103  102  103 1   
   104  102  110 1   
   105  103  104 1   
   106  103  106 1   
   107  103  111 1   
   108  104  105 2   
   109  104  121 1   
   110  106  107 1   
   111  106  108 1   
   112  106  112 1   
   113  107  109 1   
   114  107  113 1   
   115  107  114 1   
   116  108  115 1   
   117  108  116 1   
   118  108  117 1   
   119  109  118 1   
   120  109  119 1   
   121  109  120 1   
   122  121  122 1   
   123  121  127 1   
   124  122  123 1   
   125  122  125 1   
   126  122  128 1   
   127  123  124 2   
   128  123  132 1   
   129  125  126 1   
   130  125  129 1   
   131  125  130 1   
   132  126  131 1   
   133  132  133 1   
   134  132  137 1   
   135  133  134 1   
   136  133  136 1   
   137  133  138 1   
   138  134  135 2   
   139  134  142 1   
   140  136  139 1   
   141  136  140 1   
   142  136  141 1   
   143  142  143 1   
   144  142  147 1   
   145  143  144 1   
   146  143  146 1   
   147  143  148 1   
   148  144  145 2   
   149  144  152 1   
   150  146  149 1   
   151  146  150 1   
   152  146  151 1   
   153  152  153 1   
   154  152  161 1   
   155  153  154 1   
   156  153  156 1   
   157  153  162 1   
   158  154  155 2   
   159  154  167 1   
   160  156  157 1   
   161  156  163 1   
   162  156  164 1   
   163  157  158 1   
   164  157  165 1   
   165  157  166 1   
   166  158  159 1   
   167  158  160 1   
   168  167  168 1   
   169  167  172 1   
   170  168  169 1   
   171  168  170 1   
   172  168  171 1   
   173  174  175 1   
   174  174  176 1   
   175  177  178 1   
   176  177  179 1   
   177  180  181 1   
   178  180  182 1   
   179  183  184 1   
   180  183  185 1   
   181  186  187 1   
   182  186  188 1   
@<TRIPOS>SUBSTRUCTURE
     1 MOL         1 TEMP              0 ****  ****    0 ROOT
