@<TRIPOS>MOLECULE
MOL
  181   177     1     0     0
SMALL
resp


@<TRIPOS>ATOM
      1 C1          7.1420   -7.5390    3.0320 c3        1 MOL     -0.306769
      2 C2          7.0960   -5.9820    3.2240 c         1 MOL      0.550927
      3 O1          6.6220   -5.4970    4.2590 o         1 MOL     -0.543903
      4 H1          8.1770   -7.8790    3.0770 hc        1 MOL      0.079343
      5 H2          6.5670   -8.0200    3.8230 hc        1 MOL      0.079343
      6 H3          6.7170   -7.7980    2.0630 hc        1 MOL      0.079343
      7 N1          7.5350   -5.1750    2.2370 n         1 MOL     -0.375970
      8 C3          8.4520   -5.5110    1.1160 c3        1 MOL      0.008466
      9 C4          7.7880   -5.3850   -0.2870 c         1 MOL      0.550982
     10 O2          8.4970   -5.5100   -1.2460 o         1 MOL     -0.546639
     11 C5          9.6650   -4.6140    1.1050 c3        1 MOL     -0.035906
     12 C6          9.3260   -3.1330    1.0220 c         1 MOL      0.523396
     13 O3          8.6690   -2.5120    1.8960 o         1 MOL     -0.690717
     14 O4          9.5560   -2.5250   -0.0570 o         1 MOL     -0.690717
     15 H4          7.5010   -4.1890    2.4590 hn        1 MOL      0.269197
     16 H5          8.7990   -6.5460    1.1580 h1        1 MOL      0.070685
     17 H6         10.4020   -4.9810    0.3990 hc        1 MOL      0.028159
     18 H7         10.1390   -4.6790    2.0820 hc        1 MOL      0.028159
     19 N2          6.5020   -5.1620   -0.4650 n         1 MOL     -0.492826
     20 C7          5.6610   -5.2960   -1.6860 c3        1 MOL      0.274625
     21 C8          5.0980   -3.9530   -2.2410 c         1 MOL      0.424759
     22 O5          4.6110   -3.8570   -3.3830 o         1 MOL     -0.570624
     23 C9          4.5850   -6.3160   -1.4050 c3        1 MOL     -0.352663
     24 H8          5.9640   -4.9680    0.3660 hn        1 MOL      0.260123
     25 H9          6.2940   -5.6650   -2.4810 h1        1 MOL      0.053185
     26 H10         3.9790   -6.5250   -2.2880 hc        1 MOL      0.099201
     27 H11         5.1300   -7.2270   -1.1700 hc        1 MOL      0.099201
     28 H12         3.8600   -5.9650   -0.6620 hc        1 MOL      0.099201
     29 N3          5.1820   -2.8330   -1.5250 n         1 MOL     -0.257291
     30 C10         4.9570   -1.4420   -2.1160 c3        1 MOL      0.085332
     31 C11         6.2930   -0.7630   -2.4080 c         1 MOL      0.389123
     32 O6          7.3130   -1.1950   -1.9340 o         1 MOL     -0.442741
     33 C12         4.1500   -0.6100   -1.1260 c3        1 MOL     -0.148338
     34 C13         4.6970   -0.4290    0.3190 c         1 MOL      0.612949
     35 O7          3.8880    0.0020    1.2120 o         1 MOL     -0.626084
     36 O8          5.8530   -0.8190    0.5880 o         1 MOL     -0.626084
     37 H13         5.5410   -2.8760   -0.5820 hn        1 MOL      0.179726
     38 H14         4.3860   -1.4820   -3.0490 h1        1 MOL      0.077668
     39 H15         3.1350   -1.0250   -1.1540 hc        1 MOL      0.035325
     40 H16         4.0300    0.3940   -1.5150 hc        1 MOL      0.035325
     41 N4          6.1550    0.3110   -3.1190 n         1 MOL     -0.369130
     42 C14         7.1660    1.3870   -3.0750 c3        1 MOL     -0.233593
     43 C15         6.8520    2.1790   -1.8190 c         1 MOL      0.599674
     44 O9          7.0060    1.6620   -0.6680 o         1 MOL     -0.591039
     45 H17         5.2120    0.5800   -3.3700 hn        1 MOL      0.292952
     46 H18         7.0100    2.1080   -3.8780 h1        1 MOL      0.127512
     47 H19         8.1870    1.0010   -3.0790 h1        1 MOL      0.127512
     48 N5          6.7340    3.5360   -1.8880 n         1 MOL     -0.569109
     49 C16         6.4930    4.4650   -0.7700 c3        1 MOL      0.443628
     50 C17         5.0600    4.5950   -0.3280 c         1 MOL      0.414708
     51 O10         4.7610    4.6590    0.8620 o         1 MOL     -0.491472
     52 C18         7.0050    5.8580   -1.2480 c3        1 MOL     -0.375325
     53 C19         6.5920    7.0270   -0.3410 c         1 MOL      0.781510
     54 N6          5.9760    8.0480   -0.8680 n         1 MOL     -0.860369
     55 O11         6.8000    6.9800    0.8420 o         1 MOL     -0.557311
     56 H20         6.7340    3.8940   -2.8260 hn        1 MOL      0.290374
     57 H21         7.0990    4.1530    0.0820 h1        1 MOL     -0.008257
     58 H22         6.6130    5.9470   -2.2660 hc        1 MOL      0.054120
     59 H23         8.0980    5.8950   -1.3130 hc        1 MOL      0.054120
     60 H24         5.7750    8.0770   -1.8580 hn        1 MOL      0.391661
     61 H25         5.5440    8.7430   -0.2750 hn        1 MOL      0.391661
     62 N7          4.0870    4.5120   -1.2620 n         1 MOL     -0.336375
     63 C20         2.6970    4.1510   -0.9520 c3        1 MOL     -0.114002
     64 C21         1.7940    5.3550   -0.5360 c         1 MOL      0.640888
     65 O12         2.1750    6.4220   -0.9520 o         1 MOL     -0.588962
     66 H26         4.3350    4.5680   -2.2420 hn        1 MOL      0.234723
     67 H27         2.7820    3.5170   -0.0700 h1        1 MOL      0.086746
     68 H28         2.3710    3.5170   -1.7710 h1        1 MOL      0.086746
     69 N8          0.6840    5.2600    0.2660 n         1 MOL     -0.534284
     70 C22         0.2930    4.0710    0.9840 c3        1 MOL      0.001688
     71 C23        -1.0720    3.5960    0.5310 c         1 MOL      0.504359
     72 O13        -1.9340    4.5190    0.2140 o         1 MOL     -0.518056
     73 C24         0.2300    4.3480    2.4990 c3        1 MOL      0.396225
     74 C25         1.5500    4.8450    3.1300 c3        1 MOL     -0.504187
     75 O14        -0.7490    5.3070    2.7700 oh        1 MOL     -0.621217
     76 H29         0.2570    6.1580    0.4420 hn        1 MOL      0.358279
     77 H30         1.0400    3.2900    0.8030 h1        1 MOL      0.038109
     78 H31        -0.1200    3.5090    3.0990 h1        1 MOL      0.012673
     79 H32        -1.1470    5.0130    3.5930 ho        1 MOL      0.418150
     80 H33         1.7280    5.9060    2.8990 hc        1 MOL      0.133203
     81 H34         1.5300    4.7030    4.2050 hc        1 MOL      0.133203
     82 H35         2.3280    4.1750    2.7680 hc        1 MOL      0.133203
     83 N9         -1.2460    2.2990    0.3950 n         1 MOL     -0.566972
     84 C26        -2.4480    1.6490   -0.1490 c3        1 MOL      0.463735
     85 C27        -3.0110    0.6000    0.8790 c         1 MOL      0.290733
     86 O15        -2.2150   -0.2420    1.4060 o         1 MOL     -0.556795
     87 C28        -2.0840    1.0990   -1.5470 c3        1 MOL     -0.060063
     88 C29        -1.8930    2.2840   -2.5220 c3        1 MOL      0.096415
     89 C30        -3.0420    0.0320   -2.1980 c3        1 MOL     -0.220862
     90 C31        -3.2920    2.7600   -3.0130 c3        1 MOL     -0.347122
     91 H36        -0.4050    1.7910    0.6340 hn        1 MOL      0.280532
     92 H37        -3.2110    2.3950   -0.3760 h1        1 MOL      0.012918
     93 H38        -1.1020    0.6470   -1.3700 hc        1 MOL     -0.005905
     94 H39        -1.2340    1.9910   -3.3470 hc        1 MOL     -0.014328
     95 H40        -1.3970    3.1200   -2.0250 hc        1 MOL     -0.014328
     96 H41        -2.9120   -0.1230   -3.2660 hc        1 MOL      0.084722
     97 H42        -2.9090   -0.8870   -1.6320 hc        1 MOL      0.084722
     98 H43        -4.0580    0.4240   -2.1170 hc        1 MOL      0.084722
     99 H44        -3.3010    3.8260   -3.2720 hc        1 MOL      0.083329
    100 H45        -3.5260    2.2120   -3.9210 hc        1 MOL      0.083329
    101 H46        -4.0760    2.4940   -2.3050 hc        1 MOL      0.083329
    102 N10        -4.2450    0.6800    1.2600 n         1 MOL     -0.137637
    103 C32        -5.3550    1.5780    0.9340 c3        1 MOL     -0.070206
    104 C33        -6.6930    0.7800    0.9290 c         1 MOL      0.404208
    105 O16        -6.8310   -0.3460    1.4280 o         1 MOL     -0.388780
    106 C34        -5.4690    2.8840    1.7810 c3        1 MOL     -0.012295
    107 C35        -5.3510    2.7430    3.2500 c         1 MOL      0.685895
    108 O17        -5.7380    1.6470    3.6970 o         1 MOL     -0.726464
    109 O18        -4.8970    3.7090    3.8780 o         1 MOL     -0.726464
    110 H47        -4.5550   -0.1070    1.8080 hn        1 MOL      0.228720
    111 H48        -5.1820    1.9600   -0.0740 h1        1 MOL      0.045466
    112 H49        -6.4280    3.3590    1.6100 hc        1 MOL     -0.024877
    113 H50        -4.7060    3.5940    1.4430 hc        1 MOL     -0.024877
    114 N11        -7.7180    1.3500    0.2060 n         1 MOL     -0.467784
    115 C36        -9.0980    0.8360    0.1510 c3        1 MOL      0.455907
    116 C37        -9.2170    0.0660   -1.1690 c         1 MOL      0.151305
    117 O19        -8.8570    0.5510   -2.2050 o         1 MOL     -0.486488
    118 C38       -10.0940    1.9440    0.2800 c3        1 MOL     -0.300238
    119 C39       -11.4800    1.3750    0.3710 ca        1 MOL      0.161220
    120 C40       -12.1850    1.2750   -0.8130 ca        1 MOL     -0.249167
    121 C41       -11.9680    0.9080    1.6530 ca        1 MOL     -0.249167
    122 C42       -13.4750    0.6390   -0.7430 ca        1 MOL     -0.046794
    123 C43       -13.2450    0.3020    1.6580 ca        1 MOL     -0.046794
    124 C44       -13.9830    0.2450    0.4960 ca        1 MOL     -0.205547
    125 H51        -7.5340    2.3230   -0.0210 hn        1 MOL      0.260908
    126 H52        -9.0950    0.1270    0.9890 h1        1 MOL     -0.012151
    127 H53        -9.9480    2.5880   -0.5900 hc        1 MOL      0.094336
    128 H54        -9.8800    2.5870    1.1270 hc        1 MOL      0.094336
    129 H55       -11.7890    1.6480   -1.7420 ha        1 MOL      0.161741
    130 H56       -11.3820    0.8680    2.5540 ha        1 MOL      0.161741
    131 H57       -14.0380    0.5220   -1.6500 ha        1 MOL      0.095770
    132 H58       -13.6770   -0.0780    2.5680 ha        1 MOL      0.095770
    133 H59       -14.9030   -0.3110    0.4770 ha        1 MOL      0.106537
    134 N12        -9.9720   -1.0630   -1.1790 n         1 MOL      0.159124
    135 C45       -10.2150   -1.9770   -0.0530 c3        1 MOL      0.156168
    136 C46        -8.9260   -2.5570    0.6200 c         1 MOL      0.262601
    137 O20        -8.9410   -2.5990    1.8450 o         1 MOL     -0.488421
    138 C47       -11.0640   -3.0960   -0.6600 c3        1 MOL      0.031400
    139 C48       -11.6160   -2.5030   -1.9570 c3        1 MOL     -0.102076
    140 C49       -10.6020   -1.4960   -2.4470 c3        1 MOL     -0.018038
    141 H60       -10.7810   -1.4510    0.7210 h1        1 MOL     -0.015242
    142 H61       -10.5160   -4.0050   -0.8910 hc        1 MOL      0.005516
    143 H62       -11.8880   -3.4200   -0.0130 hc        1 MOL      0.005516
    144 H63       -11.6870   -3.3180   -2.6770 hc        1 MOL      0.005630
    145 H64       -12.5790   -2.0140   -1.8150 hc        1 MOL      0.005630
    146 H65        -9.8800   -1.9770   -3.1030 h1        1 MOL      0.038294
    147 H66       -11.0960   -0.6600   -2.9500 h1        1 MOL      0.038294
    148 N13        -7.9420   -3.0530   -0.2280 n         1 MOL     -0.335899
    149 C50        -6.6000   -3.4730    0.1540 c3        1 MOL      0.123647
    150 C51        -6.6190   -4.8300    0.8460 c         1 MOL      0.403806
    151 O21        -6.5800   -5.8480    0.1850 o         1 MOL     -0.563390
    152 C52        -5.8790   -3.5280   -1.1830 c3        1 MOL      0.088021
    153 C53        -5.8800   -2.1320   -1.8480 c3        1 MOL      0.057568
    154 C54        -5.2480   -2.1740   -3.2320 c         1 MOL      0.655222
    155 O22        -4.4600   -3.1070   -3.4820 o         1 MOL     -0.698042
    156 O23        -5.6500   -1.3610   -4.0770 o         1 MOL     -0.698042
    157 H67        -8.1400   -3.1210   -1.2160 hn        1 MOL      0.235101
    158 H68        -6.0830   -2.7110    0.7490 h1        1 MOL      0.056419
    159 H69        -6.2780   -4.3210   -1.8240 hc        1 MOL     -0.021190
    160 H70        -4.8350   -3.8300   -1.0590 hc        1 MOL     -0.021190
    161 H71        -5.3840   -1.4840   -1.1210 hc        1 MOL     -0.073545
    162 H72        -6.8840   -1.7370   -2.0040 hc        1 MOL     -0.073545
    163 N14        -6.5980   -4.8450    2.1710 n         1 MOL     -0.280684
    164 C55        -6.3480   -3.8400    3.2580 c3        1 MOL     -0.102331
    165 H73        -7.0710   -3.9850    4.0600 h1        1 MOL      0.077582
    166 H74        -5.3400   -3.9720    3.6500 h1        1 MOL      0.077582
    167 H75        -6.4520   -2.8340    2.8530 h1        1 MOL      0.077582
    168 H76        -6.6560   -5.8230    2.4200 hn        1 MOL      0.211549
    169 Ca1         8.4310   -0.3030    0.4480 Ca        1 MOL      1.689975
    170 O24         9.1370    2.1940    1.2990 oh        1 MOL     -0.781793
    171 H77         8.7300    2.0830    2.1610 ho        1 MOL      0.388116
    172 H78         9.6580    2.9910    1.3800 ho        1 MOL      0.388116
    173 O25         7.4630    0.4560    3.0070 oh        1 MOL     -0.781793
    174 H79         7.9180    0.7770    3.7890 ho        1 MOL      0.388116
    175 H80         6.5490    0.7140    3.1510 ho        1 MOL      0.388116
    176 O26         9.9690    0.0870   -1.5650 oh        1 MOL     -0.781793
    177 H81        10.6490    0.7540   -1.5890 ho        1 MOL      0.388116
    178 H82        10.3710   -0.6880   -1.9730 ho        1 MOL      0.388116
    179 O27        11.0550   -0.0870    1.2160 oh        1 MOL     -0.781793
    180 H83        11.6870   -0.7360    0.8990 ho        1 MOL      0.388116
    181 H84        11.3880    0.1810    2.0730 ho        1 MOL      0.388116
@<TRIPOS>BOND
     1    1    2 1   
     2    1    4 1   
     3    1    5 1   
     4    1    6 1   
     5    2    3 2   
     6    2    7 1   
     7    7    8 1   
     8    7   15 1   
     9    8    9 1   
    10    8   11 1   
    11    8   16 1   
    12    9   10 2   
    13    9   19 1   
    14   11   12 1   
    15   11   17 1   
    16   11   18 1   
    17   12   13 1   
    18   12   14 1   
    19   19   20 1   
    20   19   24 1   
    21   20   21 1   
    22   20   23 1   
    23   20   25 1   
    24   21   22 2   
    25   21   29 1   
    26   23   26 1   
    27   23   27 1   
    28   23   28 1   
    29   29   30 1   
    30   29   37 1   
    31   30   31 1   
    32   30   33 1   
    33   30   38 1   
    34   31   32 2   
    35   31   41 1   
    36   33   34 1   
    37   33   39 1   
    38   33   40 1   
    39   34   35 1   
    40   34   36 1   
    41   41   42 1   
    42   41   45 1   
    43   42   43 1   
    44   42   46 1   
    45   42   47 1   
    46   43   44 2   
    47   43   48 1   
    48   48   49 1   
    49   48   56 1   
    50   49   50 1   
    51   49   52 1   
    52   49   57 1   
    53   50   51 2   
    54   50   62 1   
    55   52   53 1   
    56   52   58 1   
    57   52   59 1   
    58   53   54 1   
    59   53   55 2   
    60   54   60 1   
    61   54   61 1   
    62   62   63 1   
    63   62   66 1   
    64   63   64 1   
    65   63   67 1   
    66   63   68 1   
    67   64   65 2   
    68   64   69 1   
    69   69   70 1   
    70   69   76 1   
    71   70   71 1   
    72   70   73 1   
    73   70   77 1   
    74   71   72 2   
    75   71   83 1   
    76   73   74 1   
    77   73   75 1   
    78   73   78 1   
    79   74   80 1   
    80   74   81 1   
    81   74   82 1   
    82   75   79 1   
    83   83   84 1   
    84   83   91 1   
    85   84   85 1   
    86   84   87 1   
    87   84   92 1   
    88   85   86 2   
    89   85  102 1   
    90   87   88 1   
    91   87   89 1   
    92   87   93 1   
    93   88   90 1   
    94   88   94 1   
    95   88   95 1   
    96   89   96 1   
    97   89   97 1   
    98   89   98 1   
    99   90   99 1   
   100   90  100 1   
   101   90  101 1   
   102  102  103 1   
   103  102  110 1   
   104  103  104 1   
   105  103  106 1   
   106  103  111 1   
   107  104  105 2   
   108  104  114 1   
   109  106  107 1   
   110  106  112 1   
   111  106  113 1   
   112  107  108 1   
   113  107  109 1   
   114  114  115 1   
   115  114  125 1   
   116  115  116 1   
   117  115  118 1   
   118  115  126 1   
   119  116  117 2   
   120  116  134 1   
   121  118  119 1   
   122  118  127 1   
   123  118  128 1   
   124  119  120 ar  
   125  119  121 ar  
   126  120  122 ar  
   127  120  129 1   
   128  121  123 ar  
   129  121  130 1   
   130  122  124 ar  
   131  122  131 1   
   132  123  124 ar  
   133  123  132 1   
   134  124  133 1   
   135  134  135 1   
   136  134  140 1   
   137  135  136 1   
   138  135  138 1   
   139  135  141 1   
   140  136  137 2   
   141  136  148 1   
   142  138  139 1   
   143  138  142 1   
   144  138  143 1   
   145  139  140 1   
   146  139  144 1   
   147  139  145 1   
   148  140  146 1   
   149  140  147 1   
   150  148  149 1   
   151  148  157 1   
   152  149  150 1   
   153  149  152 1   
   154  149  158 1   
   155  150  151 2   
   156  150  163 1   
   157  152  153 1   
   158  152  159 1   
   159  152  160 1   
   160  153  154 1   
   161  153  161 1   
   162  153  162 1   
   163  154  155 1   
   164  154  156 1   
   165  163  164 1   
   166  163  168 1   
   167  164  165 1   
   168  164  166 1   
   169  164  167 1   
   170  170  171 1   
   171  170  172 1   
   172  173  174 1   
   173  173  175 1   
   174  176  177 1   
   175  176  178 1   
   176  179  180 1   
   177  179  181 1   
@<TRIPOS>SUBSTRUCTURE
     1 MOL         1 TEMP              0 ****  ****    0 ROOT
