@<TRIPOS>MOLECULE
MOL
  181   177     1     0     0
SMALL
resp


@<TRIPOS>ATOM
      1 C1         -9.2350   -7.8230   -2.1190 c3        1 MOL     -0.361564
      2 C2         -8.2870   -6.9600   -1.2740 c         1 MOL      0.604907
      3 O1         -7.2830   -7.4840   -0.6860 o         1 MOL     -0.579942
      4 H1         -8.6510   -8.4490   -2.7940 hc        1 MOL      0.097602
      5 H2         -9.8340   -8.4550   -1.4640 hc        1 MOL      0.097602
      6 H3         -9.8930   -7.1770   -2.7020 hc        1 MOL      0.097602
      7 N1         -8.4540   -5.6520   -1.2240 n         1 MOL     -0.565852
      8 C3         -9.5540   -4.8040   -1.7290 c3        1 MOL      0.303517
      9 C4        -10.3780   -4.2090   -0.5790 c         1 MOL      0.327834
     10 O2        -11.4970   -3.7060   -0.8450 o         1 MOL     -0.559195
     11 C5         -9.0390   -3.7550   -2.6580 c3        1 MOL     -0.052165
     12 C6         -7.8970   -2.8110   -2.2100 c         1 MOL      0.695618
     13 O3         -7.3460   -2.0870   -3.0650 o         1 MOL     -0.763041
     14 O4         -7.6150   -2.7040   -0.9640 o         1 MOL     -0.763041
     15 H4         -7.7790   -5.2650   -0.5690 hn        1 MOL      0.337924
     16 H5        -10.1930   -5.4150   -2.3610 h1        1 MOL      0.009289
     17 H6         -9.8800   -3.1890   -3.0560 hc        1 MOL      0.010866
     18 H7         -8.6740   -4.3070   -3.5290 hc        1 MOL      0.010866
     19 N2         -9.8750   -4.3290    0.6390 n         1 MOL     -0.330702
     20 C7        -10.5410   -3.9080    1.8390 c3        1 MOL      0.282181
     21 C8         -9.9860   -2.5690    2.4880 c         1 MOL      0.234403
     22 O5        -10.3340   -2.2270    3.6210 o         1 MOL     -0.514476
     23 C9        -10.4090   -5.0420    2.7780 c3        1 MOL     -0.241328
     24 H8         -9.0580   -4.8980    0.7900 hn        1 MOL      0.257448
     25 H9        -11.6110   -3.7580    1.7610 h1        1 MOL      0.049533
     26 H10       -10.5700   -5.9940    2.2880 hc        1 MOL      0.064820
     27 H11        -9.3760   -5.1110    3.1150 hc        1 MOL      0.064820
     28 H12       -11.1220   -4.9300    3.5950 hc        1 MOL      0.064820
     29 N3         -9.1600   -1.7680    1.7880 n         1 MOL      0.069053
     30 C10        -8.8160   -0.4440    2.2080 c3        1 MOL     -0.175664
     31 C11        -8.8730    0.5280    1.0330 c         1 MOL      0.252181
     32 O6         -8.7710    0.1210   -0.1910 o         1 MOL     -0.476429
     33 C12        -7.4130   -0.4910    2.8970 c3        1 MOL     -0.147630
     34 C13        -6.3680   -1.3640    2.1820 c         1 MOL      0.659627
     35 O7         -5.9790   -2.4430    2.6240 o         1 MOL     -0.665923
     36 O8         -5.9440   -0.9600    1.0530 o         1 MOL     -0.665923
     37 H13        -8.9810   -1.9990    0.8210 hn        1 MOL      0.141490
     38 H14        -9.4950   -0.0420    2.9560 h1        1 MOL      0.100924
     39 H15        -7.5140   -0.9720    3.8750 hc        1 MOL      0.048342
     40 H16        -6.9520    0.4820    3.0730 hc        1 MOL      0.048342
     41 N4         -9.0130    1.8180    1.2870 n         1 MOL     -0.025328
     42 C14        -9.0190    2.9400    0.3350 c3        1 MOL     -0.528390
     43 C15        -7.6800    3.2270   -0.3370 c         1 MOL      0.911278
     44 O9         -6.8510    2.3320   -0.4910 o         1 MOL     -0.689863
     45 H17        -9.2220    2.0500    2.2470 hn        1 MOL      0.228119
     46 H18        -9.2980    3.8110    0.9180 h1        1 MOL      0.174186
     47 H19        -9.7440    2.7420   -0.4510 h1        1 MOL      0.174186
     48 N5         -7.4230    4.4900   -0.6250 n         1 MOL     -0.740945
     49 C16        -6.2210    4.8520   -1.3310 c3        1 MOL      0.419834
     50 C17        -4.9780    4.6940   -0.4100 c         1 MOL      0.560774
     51 O10        -5.1350    4.8980    0.8100 o         1 MOL     -0.527462
     52 C18        -6.4350    6.3100   -1.8130 c3        1 MOL     -0.469398
     53 C19        -5.2840    6.9000   -2.6140 c         1 MOL      0.725221
     54 N6         -5.2160    8.1670   -2.9020 n         1 MOL     -0.796423
     55 O11        -4.3340    6.2400   -3.0100 o         1 MOL     -0.575511
     56 H20        -8.1690    5.1590   -0.5400 hn        1 MOL      0.345468
     57 H21        -5.9920    4.1860   -2.1600 h1        1 MOL     -0.076751
     58 H22        -6.6270    6.9920   -0.9890 hc        1 MOL      0.127461
     59 H23        -7.2990    6.2950   -2.4700 hc        1 MOL      0.127461
     60 H24        -5.8930    8.8560   -2.6080 hn        1 MOL      0.370259
     61 H25        -4.3200    8.4780   -3.2420 hn        1 MOL      0.370259
     62 N7         -3.7680    4.4320   -0.8690 n         1 MOL     -0.333335
     63 C20        -2.5980    4.6980   -0.0490 c3        1 MOL     -0.061002
     64 C21        -2.1560    3.5560    0.8100 c         1 MOL      0.593953
     65 O12        -2.8860    2.6100    0.9900 o         1 MOL     -0.584203
     66 H26        -3.6390    4.1350   -1.8260 hn        1 MOL      0.234695
     67 H27        -2.8450    5.5400    0.6000 h1        1 MOL      0.078450
     68 H28        -1.7590    4.9120   -0.7040 h1        1 MOL      0.078450
     69 N8         -0.9950    3.7090    1.4480 n         1 MOL     -0.305324
     70 C22         0.0580    4.7350    1.2700 c3        1 MOL     -0.360124
     71 C23         1.3770    3.9850    1.0500 c         1 MOL      0.584098
     72 O13         2.3580    4.6960    0.7770 o         1 MOL     -0.537089
     73 C24         0.1560    5.6610    2.4930 c3        1 MOL      0.413979
     74 C25        -1.2110    6.2140    2.8710 c3        1 MOL     -0.266204
     75 O14         0.7380    4.9550    3.5540 oh        1 MOL     -0.592126
     76 H29        -0.9490    2.9680    2.1410 hn        1 MOL      0.312190
     77 H30        -0.1180    5.3150    0.3680 h1        1 MOL      0.154693
     78 H31         0.8470    6.4920    2.2950 h1        1 MOL      0.002021
     79 H32         1.2740    5.5990    4.0260 ho        1 MOL      0.394744
     80 H33        -1.1410    6.6300    3.8730 hc        1 MOL      0.057941
     81 H34        -1.4610    7.0110    2.1790 hc        1 MOL      0.057941
     82 H35        -1.9880    5.4410    2.9370 hc        1 MOL      0.057941
     83 N9          1.5460    2.6940    1.3000 n         1 MOL     -0.152040
     84 C26         2.8530    1.9640    1.3460 c3        1 MOL      0.048776
     85 C27         3.3630    1.4590    0.0440 c         1 MOL      0.366249
     86 O15         2.4970    1.1880   -0.8850 o         1 MOL     -0.559860
     87 C28         2.7690    0.8460    2.4230 c3        1 MOL      0.271040
     88 C29         1.6410   -0.1390    2.1650 c3        1 MOL      0.272832
     89 C30         2.7310    1.5410    3.8530 c3        1 MOL     -0.439305
     90 C31         1.8200   -1.4500    2.8770 c3        1 MOL     -0.302576
     91 H36         0.7040    2.1400    1.3140 hn        1 MOL      0.044278
     92 H37         3.6020    2.6560    1.7340 h1        1 MOL      0.032597
     93 H38         3.6920    0.2660    2.3290 hc        1 MOL     -0.017963
     94 H39         1.5770   -0.3250    1.0910 hc        1 MOL     -0.071481
     95 H40         0.7330    0.3430    2.5130 hc        1 MOL     -0.071481
     96 H41         3.6050    2.1720    4.0080 hc        1 MOL      0.090704
     97 H42         1.8790    2.2010    3.9580 hc        1 MOL      0.090704
     98 H43         2.7780    0.6380    4.4670 hc        1 MOL      0.090704
     99 H44         2.7420   -1.9460    2.5660 hc        1 MOL      0.072154
    100 H45         1.8140   -1.3990    3.9670 hc        1 MOL      0.072154
    101 H46         0.9590   -2.0080    2.5030 hc        1 MOL      0.072154
    102 N10         4.6730    1.3830   -0.2920 n         1 MOL     -0.333199
    103 C32         5.8800    1.7020    0.3670 c3        1 MOL      0.218871
    104 C33         7.0790    0.9180   -0.2260 c         1 MOL      0.261112
    105 O16         6.9790    0.3870   -1.3380 o         1 MOL     -0.464390
    106 C34         6.2110    3.1830    0.2010 c3        1 MOL      0.012771
    107 C35         6.3530    3.6550   -1.2600 c         1 MOL      0.706680
    108 O17         7.4540    3.9820   -1.7410 o         1 MOL     -0.716091
    109 O18         5.2780    3.7690   -1.9150 o         1 MOL     -0.716091
    110 H47         4.8590    1.0260   -1.2200 hn        1 MOL      0.290411
    111 H48         5.9260    1.4550    1.4240 h1        1 MOL     -0.012509
    112 H49         7.0420    3.5400    0.8170 hc        1 MOL     -0.067540
    113 H50         5.3080    3.7090    0.5170 hc        1 MOL     -0.067540
    114 N11         8.2020    0.8840    0.4760 n         1 MOL     -0.468018
    115 C36         9.4170    0.2160   -0.0040 c3        1 MOL      0.546918
    116 C37        10.1810   -0.5120    1.1060 c         1 MOL      0.193595
    117 O19        10.0790   -0.1530    2.2580 o         1 MOL     -0.502478
    118 C38        10.2170    1.3270   -0.6590 c3        1 MOL     -0.250438
    119 C39        11.6180    1.0560   -1.2360 ca        1 MOL      0.154792
    120 C40        12.7520    1.1550   -0.3940 ca        1 MOL     -0.160809
    121 C41        11.8280    0.8170   -2.5950 ca        1 MOL     -0.160809
    122 C42        14.0110    1.1200   -0.8830 ca        1 MOL     -0.115559
    123 C43        13.0990    0.7180   -3.1330 ca        1 MOL     -0.115559
    124 C44        14.1770    0.8120   -2.2390 ca        1 MOL     -0.128979
    125 H51         8.2090    1.3050    1.3880 hn        1 MOL      0.320508
    126 H52         9.1740   -0.4370   -0.8340 h1        1 MOL     -0.030605
    127 H53        10.2670    2.0870    0.1290 hc        1 MOL      0.063214
    128 H54         9.7040    1.8150   -1.4830 hc        1 MOL      0.063214
    129 H55        12.6180    1.3800    0.6520 ha        1 MOL      0.123888
    130 H56        10.9570    0.7050   -3.2300 ha        1 MOL      0.123888
    131 H57        14.9250    1.2240   -0.3160 ha        1 MOL      0.100898
    132 H58        13.3020    0.4130   -4.1490 ha        1 MOL      0.100898
    133 H59        15.1830    0.9020   -2.6190 ha        1 MOL      0.075585
    134 N12        10.9520   -1.6140    0.8390 n         1 MOL     -0.062896
    135 C45        11.0410   -2.3520   -0.4020 c3        1 MOL      0.032449
    136 C46         9.6360   -2.7870   -0.9970 c         1 MOL      0.467551
    137 O20         9.5550   -2.6390   -2.2330 o         1 MOL     -0.528006
    138 C47        11.8170   -3.6360   -0.1060 c3        1 MOL      0.015372
    139 C48        12.7120   -3.1870    1.0250 c3        1 MOL     -0.094160
    140 C49        11.9890   -2.0450    1.7620 c3        1 MOL      0.127609
    141 H60        11.6080   -1.8260   -1.1680 h1        1 MOL      0.034848
    142 H61        11.1890   -4.4810    0.1840 hc        1 MOL      0.024651
    143 H62        12.3750   -3.9470   -0.9920 hc        1 MOL      0.024651
    144 H63        12.9560   -3.9670    1.7440 hc        1 MOL      0.007423
    145 H64        13.5640   -2.6090    0.6690 hc        1 MOL      0.007423
    146 H65        11.6770   -2.3290    2.7720 h1        1 MOL      0.002052
    147 H66        12.7260   -1.2600    1.8740 h1        1 MOL      0.002052
    148 N13         8.7520   -3.2980   -0.1210 n         1 MOL     -0.449935
    149 C50         7.4280   -3.9120   -0.4830 c3        1 MOL      0.154257
    150 C51         7.7100   -5.1930   -1.1970 c         1 MOL      0.476595
    151 O21         8.2660   -6.1710   -0.7120 o         1 MOL     -0.583632
    152 C52         6.6540   -4.2010    0.8170 c3        1 MOL      0.185287
    153 C53         6.2060   -3.0040    1.6550 c3        1 MOL     -0.086120
    154 C54         5.5830   -3.3910    3.0660 c         1 MOL      0.717349
    155 O22         5.6540   -2.5630    3.9820 o         1 MOL     -0.725226
    156 O23         5.0090   -4.4710    3.1990 o         1 MOL     -0.725226
    157 H67         9.0230   -3.3440    0.8550 hn        1 MOL      0.280022
    158 H68         6.7580   -3.3020   -1.0870 h1        1 MOL      0.074531
    159 H69         7.2740   -4.8430    1.4470 hc        1 MOL     -0.050275
    160 H70         5.8110   -4.8430    0.5750 hc        1 MOL     -0.050275
    161 H71         5.5130   -2.5130    0.9700 hc        1 MOL     -0.051009
    162 H72         7.0680   -2.3520    1.8090 hc        1 MOL     -0.051009
    163 N14         7.3780   -5.3960   -2.5220 n         1 MOL     -0.418613
    164 C55         6.9840   -4.4690   -3.5480 c3        1 MOL     -0.111561
    165 H73         6.9380   -4.9860   -4.5060 h1        1 MOL      0.069979
    166 H74         6.0020   -4.0590   -3.3100 h1        1 MOL      0.069979
    167 H75         7.7120   -3.6590   -3.6070 h1        1 MOL      0.069979
    168 H76         7.7570   -6.2550   -2.8870 hn        1 MOL      0.290205
    169 Ca1        -6.3340   -0.2590   -1.3810 Ca        1 MOL      1.754417
    170 O24        -5.2630    1.9360   -3.0690 oh        1 MOL     -0.832811
    171 H77        -5.5430    2.4070   -3.8490 ho        1 MOL      0.414923
    172 H78        -4.4070    2.3130   -2.8560 ho        1 MOL      0.414923
    173 O25        -4.5390   -2.1420   -2.5120 oh        1 MOL     -0.832811
    174 H79        -4.9550   -2.3700   -3.3370 ho        1 MOL      0.414923
    175 H80        -4.1080   -2.9500   -2.2250 ho        1 MOL      0.414923
    176 O26        -7.8250    0.7370   -3.2710 oh        1 MOL     -0.832811
    177 H81        -7.8800    1.6580   -3.5310 ho        1 MOL      0.414923
    178 H82        -8.0460    0.2460   -4.0580 ho        1 MOL      0.414923
    179 O27        -4.0050    0.5560   -0.7240 oh        1 MOL     -0.832811
    180 H83        -3.9480    1.3800   -0.2420 ho        1 MOL      0.414923
    181 H84        -3.1270    0.1870   -0.6730 ho        1 MOL      0.414923
@<TRIPOS>BOND
     1    1    2 1   
     2    1    4 1   
     3    1    5 1   
     4    1    6 1   
     5    2    3 2   
     6    2    7 1   
     7    7    8 1   
     8    7   15 1   
     9    8    9 1   
    10    8   11 1   
    11    8   16 1   
    12    9   10 2   
    13    9   19 1   
    14   11   12 1   
    15   11   17 1   
    16   11   18 1   
    17   12   13 1   
    18   12   14 1   
    19   19   20 1   
    20   19   24 1   
    21   20   21 1   
    22   20   23 1   
    23   20   25 1   
    24   21   22 2   
    25   21   29 1   
    26   23   26 1   
    27   23   27 1   
    28   23   28 1   
    29   29   30 1   
    30   29   37 1   
    31   30   31 1   
    32   30   33 1   
    33   30   38 1   
    34   31   32 2   
    35   31   41 1   
    36   33   34 1   
    37   33   39 1   
    38   33   40 1   
    39   34   35 1   
    40   34   36 1   
    41   41   42 1   
    42   41   45 1   
    43   42   43 1   
    44   42   46 1   
    45   42   47 1   
    46   43   44 2   
    47   43   48 1   
    48   48   49 1   
    49   48   56 1   
    50   49   50 1   
    51   49   52 1   
    52   49   57 1   
    53   50   51 2   
    54   50   62 1   
    55   52   53 1   
    56   52   58 1   
    57   52   59 1   
    58   53   54 1   
    59   53   55 2   
    60   54   60 1   
    61   54   61 1   
    62   62   63 1   
    63   62   66 1   
    64   63   64 1   
    65   63   67 1   
    66   63   68 1   
    67   64   65 2   
    68   64   69 1   
    69   69   70 1   
    70   69   76 1   
    71   70   71 1   
    72   70   73 1   
    73   70   77 1   
    74   71   72 2   
    75   71   83 1   
    76   73   74 1   
    77   73   75 1   
    78   73   78 1   
    79   74   80 1   
    80   74   81 1   
    81   74   82 1   
    82   75   79 1   
    83   83   84 1   
    84   83   91 1   
    85   84   85 1   
    86   84   87 1   
    87   84   92 1   
    88   85   86 2   
    89   85  102 1   
    90   87   88 1   
    91   87   89 1   
    92   87   93 1   
    93   88   90 1   
    94   88   94 1   
    95   88   95 1   
    96   89   96 1   
    97   89   97 1   
    98   89   98 1   
    99   90   99 1   
   100   90  100 1   
   101   90  101 1   
   102  102  103 1   
   103  102  110 1   
   104  103  104 1   
   105  103  106 1   
   106  103  111 1   
   107  104  105 2   
   108  104  114 1   
   109  106  107 1   
   110  106  112 1   
   111  106  113 1   
   112  107  108 1   
   113  107  109 1   
   114  114  115 1   
   115  114  125 1   
   116  115  116 1   
   117  115  118 1   
   118  115  126 1   
   119  116  117 2   
   120  116  134 1   
   121  118  119 1   
   122  118  127 1   
   123  118  128 1   
   124  119  120 ar  
   125  119  121 ar  
   126  120  122 ar  
   127  120  129 1   
   128  121  123 ar  
   129  121  130 1   
   130  122  124 ar  
   131  122  131 1   
   132  123  124 ar  
   133  123  132 1   
   134  124  133 1   
   135  134  135 1   
   136  134  140 1   
   137  135  136 1   
   138  135  138 1   
   139  135  141 1   
   140  136  137 2   
   141  136  148 1   
   142  138  139 1   
   143  138  142 1   
   144  138  143 1   
   145  139  140 1   
   146  139  144 1   
   147  139  145 1   
   148  140  146 1   
   149  140  147 1   
   150  148  149 1   
   151  148  157 1   
   152  149  150 1   
   153  149  152 1   
   154  149  158 1   
   155  150  151 2   
   156  150  163 1   
   157  152  153 1   
   158  152  159 1   
   159  152  160 1   
   160  153  154 1   
   161  153  161 1   
   162  153  162 1   
   163  154  155 1   
   164  154  156 1   
   165  163  164 1   
   166  163  168 1   
   167  164  165 1   
   168  164  166 1   
   169  164  167 1   
   170  170  171 1   
   171  170  172 1   
   172  173  174 1   
   173  173  175 1   
   174  176  177 1   
   175  176  178 1   
   176  179  180 1   
   177  179  181 1   
@<TRIPOS>SUBSTRUCTURE
     1 MOL         1 TEMP              0 ****  ****    0 ROOT
