@<TRIPOS>MOLECULE
MOL
  185   180     1     0     0
SMALL
resp


@<TRIPOS>ATOM
      1 C1         -2.3680   -3.5690    5.9270 c3        1 MOL     -0.189572
      2 C2         -1.9710   -3.2270    4.4890 c         1 MOL      0.742526
      3 O1         -2.7960   -3.3360    3.5560 o         1 MOL     -0.607269
      4 H1         -1.9210   -4.5220    6.2100 hc        1 MOL      0.047945
      5 H2         -2.0130   -2.7880    6.5990 hc        1 MOL      0.047945
      6 H3         -3.4530   -3.6430    5.9970 hc        1 MOL      0.047945
      7 N1         -0.7460   -2.8080    4.2500 n         1 MOL     -0.559603
      8 C3         -0.0780   -2.8520    2.9630 c3        1 MOL     -0.064548
      9 C4         -0.2010   -4.2560    2.2330 c         1 MOL      0.497844
     10 O2         -0.0740   -5.4110    2.8520 o         1 MOL     -0.511770
     11 C5          1.4220   -2.5030    3.0350 c3        1 MOL      0.101011
     12 C6          1.9900   -1.9540    1.7130 c         1 MOL      0.644926
     13 O3          3.0130   -1.2260    1.7430 o         1 MOL     -0.765419
     14 O4          1.3410   -2.0990    0.6470 o         1 MOL     -0.765419
     15 H4         -0.1470   -2.8380    5.0580 hn        1 MOL      0.303961
     16 H5         -0.5630   -2.0140    2.4700 h1        1 MOL      0.101115
     17 H6          1.9730   -3.3810    3.3640 hc        1 MOL      0.008822
     18 H7          1.5050   -1.7840    3.8520 hc        1 MOL      0.008822
     19 N2         -0.4800   -4.1820    0.8990 n         1 MOL     -0.390652
     20 C7         -0.3870   -5.2970    0.0200 c3        1 MOL      0.194127
     21 C8          0.9760   -5.6940   -0.6290 c         1 MOL      0.358488
     22 O5          1.2760   -6.8840   -0.7100 o         1 MOL     -0.540960
     23 C9         -1.4500   -5.1480   -1.0670 c3        1 MOL      0.033384
     24 C10        -1.7980   -6.4880   -1.7570 c3        1 MOL      0.065104
     25 C11        -2.9650   -6.2990   -2.7960 c3        1 MOL      0.124042
     26 C12        -3.0500   -7.6150   -3.5630 c3        1 MOL     -0.031898
     27 N3         -3.7520   -7.2290   -4.7910 n4        1 MOL     -0.234493
     28 H8         -0.6180   -3.2660    0.4940 hn        1 MOL      0.200895
     29 H9         -0.6570   -6.0820    0.7130 h1        1 MOL      0.068157
     30 H10        -1.1060   -4.4890   -1.8650 hc        1 MOL     -0.031789
     31 H11        -2.4260   -4.8520   -0.6810 hc        1 MOL     -0.031789
     32 H12        -2.0470   -7.2470   -1.0120 hc        1 MOL     -0.013389
     33 H13        -0.9240   -6.8020   -2.3350 hc        1 MOL     -0.013389
     34 H14        -2.7720   -5.5190   -3.5270 hc        1 MOL     -0.017695
     35 H15        -3.9380   -6.0920   -2.3590 hc        1 MOL     -0.017695
     36 H16        -3.5540   -8.4090   -3.0190 hx        1 MOL      0.100588
     37 H17        -2.0290   -7.8980   -3.8300 hx        1 MOL      0.100588
     38 H18        -3.3930   -6.3530   -5.1520 hn        1 MOL      0.280060
     39 H19        -3.7900   -7.8570   -5.5760 hn        1 MOL      0.280060
     40 H20        -4.7450   -7.1540   -4.5880 hn        1 MOL      0.280060
     41 N4          1.7390   -4.6840   -1.0270 n         1 MOL     -0.111060
     42 C13         3.1150   -4.9970   -1.5700 c3        1 MOL     -0.080512
     43 C14         4.2660   -4.8180   -0.5330 c         1 MOL      0.529017
     44 O6          5.3600   -5.3610   -0.6690 o         1 MOL     -0.531562
     45 C15         3.3960   -4.1270   -2.8380 c3        1 MOL     -0.467865
     46 C16         3.5330   -2.6400   -2.6470 c         1 MOL      0.699557
     47 O7          3.3240   -2.0670   -1.5680 o         1 MOL     -0.712646
     48 O8          3.9500   -1.9600   -3.6020 o         1 MOL     -0.712646
     49 H21         1.4070   -3.7340   -0.9460 hn        1 MOL      0.139344
     50 H22         3.1270   -6.0580   -1.8040 h1        1 MOL      0.129757
     51 H23         2.6220   -4.3320   -3.5710 hc        1 MOL      0.151478
     52 H24         4.3760   -4.4270   -3.2110 hc        1 MOL      0.151478
     53 N5          4.0510   -4.0890    0.6070 n         1 MOL     -0.237322
     54 C17         5.0890   -3.7800    1.6210 c3        1 MOL     -0.114149
     55 C18         6.1840   -2.9250    1.0060 c         1 MOL      0.580220
     56 O9          7.3070   -3.0810    1.4000 o         1 MOL     -0.543457
     57 H25         3.1340   -3.6570    0.6430 hn        1 MOL      0.116978
     58 H26         5.5620   -4.6920    2.0020 h1        1 MOL      0.088125
     59 H27         4.6080   -3.3020    2.4710 h1        1 MOL      0.088125
     60 N6          5.7970   -1.9660    0.1320 n         1 MOL     -0.339509
     61 C19         6.6420   -0.9310   -0.4930 c3        1 MOL      0.130764
     62 C20         5.8710    0.4380   -0.6340 c         1 MOL      0.413618
     63 O10         4.6310    0.5000   -0.6100 o         1 MOL     -0.446493
     64 C21         7.2580   -1.4580   -1.8370 c3        1 MOL     -0.472209
     65 C22         8.3430   -0.4910   -2.4060 c         1 MOL      0.688925
     66 N7          8.0660    0.2960   -3.3870 n         1 MOL     -0.802621
     67 O11         9.4810   -0.5470   -1.9770 o         1 MOL     -0.561718
     68 H28         4.8110   -2.0000   -0.0880 hn        1 MOL      0.320839
     69 H29         7.4940   -0.7430    0.1610 h1        1 MOL      0.037440
     70 H30         6.4520   -1.5760   -2.5750 hc        1 MOL      0.187317
     71 H31         7.7700   -2.3950   -1.6450 hc        1 MOL      0.187317
     72 H32         7.1760    0.1110   -3.8280 hn        1 MOL      0.365625
     73 H33         8.7870    0.7750   -3.9030 hn        1 MOL      0.365625
     74 N8          6.6640    1.5140   -0.7270 n         1 MOL     -0.395415
     75 C23         6.2070    2.8570   -1.1320 c3        1 MOL      0.017924
     76 C24         5.2340    3.5240   -0.0910 c         1 MOL      0.462832
     77 O12         5.4940    3.4290    1.1380 o         1 MOL     -0.486151
     78 H34         7.6530    1.3970   -0.5810 hn        1 MOL      0.328016
     79 H35         5.6430    2.7470   -2.0650 h1        1 MOL      0.051813
     80 H36         7.0610    3.4620   -1.4210 h1        1 MOL      0.051813
     81 N9          4.1660    4.1070   -0.5820 n         1 MOL     -0.379271
     82 C25         3.0390    4.5250    0.2360 c3        1 MOL      0.107155
     83 C26         2.3980    3.3370    1.0650 c         1 MOL      0.457704
     84 O13         2.5800    2.1800    0.7530 o         1 MOL     -0.386345
     85 C27         2.0320    5.2570   -0.7010 c3        1 MOL     -0.314733
     86 C28         2.4340    6.6630   -1.1080 ca        1 MOL      0.176289
     87 C29         2.1930    7.7950   -0.3180 ca        1 MOL     -0.180642
     88 C30         2.8890    6.8440   -2.3970 ca        1 MOL     -0.180642
     89 C31         2.6750    9.0900   -0.8030 ca        1 MOL     -0.330208
     90 C32         3.3740    8.0800   -2.9210 ca        1 MOL     -0.330208
     91 C33         3.2030    9.2560   -2.0690 ca        1 MOL      0.424456
     92 O14         3.5560   10.4420   -2.4870 oh        1 MOL     -0.468546
     93 H37         4.0490    4.1810   -1.5890 hn        1 MOL      0.196984
     94 H38         3.3790    5.2920    0.9330 h1        1 MOL      0.077370
     95 H39         1.1080    5.3900   -0.1490 hc        1 MOL      0.083026
     96 H40         1.9030    4.6710   -1.6100 hc        1 MOL      0.083026
     97 H41         1.8640    7.8040    0.7190 ha        1 MOL      0.151102
     98 H42         3.0800    5.9620   -3.0000 ha        1 MOL      0.151102
     99 H43         2.5770   10.0140   -0.2530 ha        1 MOL      0.170396
    100 H44         3.7230    8.1060   -3.9490 ha        1 MOL      0.170396
    101 H45         3.7900   10.4200   -3.4220 ho        1 MOL      0.370649
    102 N10         1.6540    3.6960    2.0720 n         1 MOL     -0.496734
    103 C34         0.9130    2.7620    3.0530 c3        1 MOL      0.032550
    104 C35         0.0610    1.7530    2.3700 c         1 MOL      0.312073
    105 O15         0.4790    0.8970    1.5740 o         1 MOL     -0.460314
    106 C36         1.8560    2.2430    4.1880 c3        1 MOL      0.195225
    107 C37         0.9520    1.9970    5.4120 c3        1 MOL      0.076335
    108 C38         3.0080    3.1540    4.5990 c3        1 MOL     -0.137792
    109 C39         1.7180    1.3620    6.6220 c3        1 MOL     -0.311985
    110 H46         1.4530    4.6830    2.1670 hn        1 MOL      0.298929
    111 H47         0.2900    3.3990    3.6960 h1        1 MOL      0.053901
    112 H48         2.3240    1.3140    3.8730 hc        1 MOL      0.044747
    113 H49         0.0960    1.3620    5.2230 hc        1 MOL     -0.029325
    114 H50         0.4800    2.9420    5.6720 hc        1 MOL     -0.029325
    115 H51         3.5760    2.6830    5.4070 hc        1 MOL      0.033476
    116 H52         3.6250    3.3780    3.7300 hc        1 MOL      0.033476
    117 H53         2.6250    4.0880    4.9960 hc        1 MOL      0.033476
    118 H54         1.0360    0.9110    7.3410 hc        1 MOL      0.088909
    119 H55         2.4210    0.6260    6.2250 hc        1 MOL      0.088909
    120 H56         2.3600    2.1510    7.0300 hc        1 MOL      0.088909
    121 N11        -1.1930    1.7020    2.8820 n         1 MOL     -0.223275
    122 C40        -2.1630    0.6470    2.6990 c3        1 MOL     -0.106191
    123 C41        -3.3290    0.9240    1.6470 c         1 MOL      0.355926
    124 O16        -4.3300    0.1820    1.6850 o         1 MOL     -0.493740
    125 C42        -2.7940    0.3970    4.0420 c3        1 MOL      0.215569
    126 O17        -1.9060    0.1070    5.1230 oh        1 MOL     -0.565790
    127 H57        -1.4080    2.4680    3.5010 hn        1 MOL      0.189169
    128 H58        -1.6770   -0.2790    2.3960 h1        1 MOL      0.173756
    129 H59        -3.5410   -0.3810    3.9350 h1        1 MOL      0.046808
    130 H60        -3.4640    1.1900    4.3680 h1        1 MOL      0.046808
    131 H61        -1.6320    0.9600    5.4570 ho        1 MOL      0.347220
    132 N12        -3.2690    1.8740    0.7730 n         1 MOL     -0.188829
    133 C43        -4.1980    2.0000   -0.3620 c3        1 MOL     -0.010674
    134 C44        -3.7120    1.1130   -1.4650 c         1 MOL      0.678942
    135 O18        -2.5410    1.3610   -1.8350 o         1 MOL     -0.584997
    136 C45        -4.2930    3.5280   -0.7360 c3        1 MOL     -0.349583
    137 H62        -2.5470    2.5700    0.8300 hn        1 MOL      0.189842
    138 H63        -5.1710    1.6980    0.0330 h1        1 MOL      0.063287
    139 H64        -4.8150    3.6470   -1.6840 hc        1 MOL      0.114903
    140 H65        -4.8030    4.0710    0.0530 hc        1 MOL      0.114903
    141 H66        -3.2580    3.8900   -0.7420 hc        1 MOL      0.114903
    142 N13        -4.4870    0.3250   -2.1050 n         1 MOL     -0.732887
    143 C46        -5.8090    0.0220   -1.6650 c3        1 MOL      0.472825
    144 C47        -6.7740    1.1540   -2.0850 c         1 MOL      0.682012
    145 O19        -6.5510    1.7080   -3.1900 o         1 MOL     -0.565143
    146 C48        -6.1240   -1.4010   -2.1010 c3        1 MOL     -0.335135
    147 H67        -4.0830   -0.3890   -2.7020 hn        1 MOL      0.348141
    148 H68        -5.8910   -0.0510   -0.5710 h1        1 MOL     -0.012493
    149 H69        -5.3480   -2.0980   -1.7780 hc        1 MOL      0.077840
    150 H70        -7.0320   -1.6930   -1.5620 hc        1 MOL      0.077840
    151 H71        -6.3220   -1.4150   -3.1690 hc        1 MOL      0.077840
    152 N14        -7.9670    1.3950   -1.4750 n         1 MOL     -0.614716
    153 C49        -8.5690    0.4980   -0.4580 c3        1 MOL      0.015109
    154 C50        -8.9810    1.1960    0.8950 c         1 MOL      0.479069
    155 O20        -8.6260    0.7430    1.9950 o         1 MOL     -0.567036
    156 C51        -9.6580   -0.2930   -1.1640 c3        1 MOL     -0.145735
    157 C52       -10.9810    0.4790   -1.3500 c3        1 MOL      0.069974
    158 C53       -10.6870    1.5530   -2.4260 c         1 MOL      0.597553
    159 O21       -10.7110    1.2920   -3.6470 o         1 MOL     -0.632501
    160 O22       -10.4070    2.7190   -1.9810 o         1 MOL     -0.632501
    161 H72        -8.4330    2.2210   -1.7980 hn        1 MOL      0.301841
    162 H73        -7.7720   -0.1640   -0.1270 h1        1 MOL      0.045880
    163 H74        -9.9430   -1.1420   -0.5460 hc        1 MOL      0.046971
    164 H75        -9.3610   -0.5180   -2.1990 hc        1 MOL      0.046971
    165 H76       -11.3050    1.0340   -0.4680 hc        1 MOL     -0.040767
    166 H77       -11.8080   -0.1480   -1.6740 hc        1 MOL     -0.040767
    167 N15        -9.4010    2.4190    0.8230 n         1 MOL     -0.078977
    168 C54        -9.4620    3.4120    1.8890 c3        1 MOL     -0.318821
    169 H78        -9.6470    4.3950    1.4580 h1        1 MOL      0.117269
    170 H79       -10.2700    3.1600    2.5750 h1        1 MOL      0.117269
    171 H80        -8.5160    3.4230    2.4290 h1        1 MOL      0.117269
    172 H81        -9.6380    2.7440   -0.1050 hn        1 MOL      0.148138
    173 Ca1         1.9780    0.0440   -0.7090 Ca        1 MOL      1.743489
    174 O23         1.6080   -0.7260   -3.3560 oh        1 MOL     -0.804691
    175 H82         0.9850   -1.3820   -3.6700 ho        1 MOL      0.392476
    176 H83         2.4730   -1.1050   -3.5450 ho        1 MOL      0.392476
    177 O24         0.1730    2.0370   -1.5590 oh        1 MOL     -0.804691
    178 H84        -0.7160    1.8540   -1.2700 ho        1 MOL      0.392476
    179 H85         0.1020    2.8670   -2.0450 ho        1 MOL      0.392476
    180 O25         3.0750    1.9740   -2.6710 oh        1 MOL     -0.804691
    181 H86         2.6690    1.7030   -3.4950 ho        1 MOL      0.392476
    182 H87         3.6140    2.7250   -2.9140 ho        1 MOL      0.392476
    183 O26        -0.5490   -0.5940   -1.0900 oh        1 MOL     -0.804691
    184 H88        -0.6870   -1.0330   -1.9330 ho        1 MOL      0.392476
    185 H89        -1.1140   -1.0530   -0.4800 ho        1 MOL      0.392476
@<TRIPOS>BOND
     1    1    2 1   
     2    1    4 1   
     3    1    5 1   
     4    1    6 1   
     5    2    3 2   
     6    2    7 1   
     7    7    8 1   
     8    7   15 1   
     9    8    9 1   
    10    8   11 1   
    11    8   16 1   
    12    9   10 2   
    13    9   19 1   
    14   11   12 1   
    15   11   17 1   
    16   11   18 1   
    17   12   13 1   
    18   12   14 1   
    19   19   20 1   
    20   19   28 1   
    21   20   21 1   
    22   20   23 1   
    23   20   29 1   
    24   21   22 2   
    25   21   41 1   
    26   23   24 1   
    27   23   30 1   
    28   23   31 1   
    29   24   25 1   
    30   24   32 1   
    31   24   33 1   
    32   25   26 1   
    33   25   34 1   
    34   25   35 1   
    35   26   27 1   
    36   26   36 1   
    37   26   37 1   
    38   27   38 1   
    39   27   39 1   
    40   27   40 1   
    41   41   42 1   
    42   41   49 1   
    43   42   43 1   
    44   42   45 1   
    45   42   50 1   
    46   43   44 2   
    47   43   53 1   
    48   45   46 1   
    49   45   51 1   
    50   45   52 1   
    51   46   47 1   
    52   46   48 1   
    53   53   54 1   
    54   53   57 1   
    55   54   55 1   
    56   54   58 1   
    57   54   59 1   
    58   55   56 2   
    59   55   60 1   
    60   60   61 1   
    61   60   68 1   
    62   61   62 1   
    63   61   64 1   
    64   61   69 1   
    65   62   63 2   
    66   62   74 1   
    67   64   65 1   
    68   64   70 1   
    69   64   71 1   
    70   65   66 1   
    71   65   67 2   
    72   66   72 1   
    73   66   73 1   
    74   74   75 1   
    75   74   78 1   
    76   75   76 1   
    77   75   79 1   
    78   75   80 1   
    79   76   77 2   
    80   76   81 1   
    81   81   82 1   
    82   81   93 1   
    83   82   83 1   
    84   82   85 1   
    85   82   94 1   
    86   83   84 2   
    87   83  102 1   
    88   85   86 1   
    89   85   95 1   
    90   85   96 1   
    91   86   87 ar  
    92   86   88 ar  
    93   87   89 ar  
    94   87   97 1   
    95   88   90 ar  
    96   88   98 1   
    97   89   91 ar  
    98   89   99 1   
    99   90   91 ar  
   100   90  100 1   
   101   91   92 1   
   102   92  101 1   
   103  102  103 1   
   104  102  110 1   
   105  103  104 1   
   106  103  106 1   
   107  103  111 1   
   108  104  105 2   
   109  104  121 1   
   110  106  107 1   
   111  106  108 1   
   112  106  112 1   
   113  107  109 1   
   114  107  113 1   
   115  107  114 1   
   116  108  115 1   
   117  108  116 1   
   118  108  117 1   
   119  109  118 1   
   120  109  119 1   
   121  109  120 1   
   122  121  122 1   
   123  121  127 1   
   124  122  123 1   
   125  122  125 1   
   126  122  128 1   
   127  123  124 2   
   128  123  132 1   
   129  125  126 1   
   130  125  129 1   
   131  125  130 1   
   132  126  131 1   
   133  132  133 1   
   134  132  137 1   
   135  133  134 1   
   136  133  136 1   
   137  133  138 1   
   138  134  135 2   
   139  134  142 1   
   140  136  139 1   
   141  136  140 1   
   142  136  141 1   
   143  142  143 1   
   144  142  147 1   
   145  143  144 1   
   146  143  146 1   
   147  143  148 1   
   148  144  145 2   
   149  144  152 1   
   150  146  149 1   
   151  146  150 1   
   152  146  151 1   
   153  152  153 1   
   154  152  161 1   
   155  153  154 1   
   156  153  156 1   
   157  153  162 1   
   158  154  155 2   
   159  154  167 1   
   160  156  157 1   
   161  156  163 1   
   162  156  164 1   
   163  157  158 1   
   164  157  165 1   
   165  157  166 1   
   166  158  159 1   
   167  158  160 1   
   168  167  168 1   
   169  167  172 1   
   170  168  169 1   
   171  168  170 1   
   172  168  171 1   
   173  174  175 1   
   174  174  176 1   
   175  177  178 1   
   176  177  179 1   
   177  180  181 1   
   178  180  182 1   
   179  183  184 1   
   180  183  185 1   
@<TRIPOS>SUBSTRUCTURE
     1 MOL         1 TEMP              0 ****  ****    0 ROOT
