@<TRIPOS>MOLECULE
MOL
  178   175     1     0     0
SMALL
resp


@<TRIPOS>ATOM
      1 C1          1.8920   -3.0320    4.3430 c3        1 MOL     -0.344208
      2 C2          2.9160   -2.0090    3.7220 c         1 MOL      0.696441
      3 O1          2.8630   -1.7600    2.5590 o         1 MOL     -0.520507
      4 H1          1.3340   -3.5170    3.5420 hc        1 MOL      0.080349
      5 H2          2.4330   -3.7850    4.9160 hc        1 MOL      0.080349
      6 H3          1.2010   -2.5030    4.9980 hc        1 MOL      0.080349
      7 N1          3.9150   -1.5860    4.5080 n         1 MOL     -0.616062
      8 C3          4.8770   -0.5230    4.2010 c3        1 MOL      0.194402
      9 C4          5.9140   -0.9600    3.1380 c         1 MOL      0.496572
     10 O2          6.1050   -0.2590    2.1320 o         1 MOL     -0.447733
     11 C5          5.6690   -0.3140    5.4660 c3        1 MOL     -0.163290
     12 C6          6.7520    0.7290    5.2240 c         1 MOL      0.704752
     13 O3          6.5160    1.9140    5.0700 o         1 MOL     -0.709750
     14 O4          7.8920    0.2730    5.1030 o         1 MOL     -0.709750
     15 H4          4.0810   -2.0350    5.3950 hn        1 MOL      0.301957
     16 H5          4.5130    0.4150    3.7890 h1        1 MOL      0.040422
     17 H6          6.0850   -1.2670    5.7940 hc        1 MOL     -0.021487
     18 H7          5.0200    0.0820    6.2410 hc        1 MOL     -0.021487
     19 N2          6.3160   -2.2330    3.2570 n         1 MOL     -0.497802
     20 C7          7.2030   -3.0890    2.3960 c3        1 MOL      0.320722
     21 C8          6.7050   -3.1150    0.9270 c         1 MOL      0.387721
     22 O5          7.5000   -3.1700    0.0130 o         1 MOL     -0.496994
     23 C9          8.6570   -2.6090    2.5640 c3        1 MOL     -0.404599
     24 H8          5.9150   -2.7200    4.0430 hn        1 MOL      0.263167
     25 H9          7.0730   -4.0630    2.8670 h1        1 MOL     -0.002735
     26 H10         9.2600   -3.4050    2.1180 hc        1 MOL      0.111097
     27 H11         8.7440   -1.6830    1.9910 hc        1 MOL      0.111097
     28 H12         8.9300   -2.4360    3.6040 hc        1 MOL      0.111097
     29 N3          5.3650   -2.9720    0.6650 n         1 MOL     -0.567031
     30 C10         4.6850   -3.0690   -0.6500 c3        1 MOL      0.626800
     31 C11         5.1180   -1.9660   -1.6380 c         1 MOL      0.046707
     32 O6          5.0810   -2.1800   -2.8490 o         1 MOL     -0.415652
     33 C12         4.7060   -4.4620   -1.1260 c3        1 MOL     -0.559355
     34 C13         3.7650   -4.8840   -2.2590 c         1 MOL      0.840840
     35 O7          3.9880   -5.8990   -2.9690 o         1 MOL     -0.737322
     36 O8          2.7400   -4.1950   -2.4640 o         1 MOL     -0.737322
     37 H13         4.7010   -3.0160    1.4160 hn        1 MOL      0.268420
     38 H14         3.6510   -2.8790   -0.3730 h1        1 MOL     -0.007039
     39 H15         4.3960   -5.0490   -0.2610 hc        1 MOL      0.114324
     40 H16         5.7360   -4.6810   -1.4210 hc        1 MOL      0.114324
     41 N4          5.7170   -0.9050   -1.1230 n         1 MOL      0.189876
     42 C14         6.3870    0.1210   -2.0450 c3        1 MOL     -0.217091
     43 C15         5.5260    1.2390   -2.6170 c         1 MOL      0.698403
     44 O9          6.0870    2.2700   -3.0130 o         1 MOL     -0.614271
     45 H17         5.7180   -0.8430   -0.1240 hn        1 MOL      0.026453
     46 H18         6.7430   -0.3900   -2.9490 h1        1 MOL      0.083852
     47 H19         7.1600    0.6500   -1.4960 h1        1 MOL      0.083852
     48 N5          4.2210    1.1150   -2.5180 n         1 MOL     -0.429260
     49 C16         3.2310    2.0520   -3.1250 c3        1 MOL      0.107983
     50 C17         3.2910    3.5460   -2.5530 c         1 MOL      0.451418
     51 O10         3.3680    3.7560   -1.3220 o         1 MOL     -0.468939
     52 C18         1.8320    1.4410   -3.1230 c3        1 MOL     -0.347877
     53 C19         1.8150    0.0850   -3.7730 c         1 MOL      0.558320
     54 N6          1.9870    0.0690   -5.0490 n         1 MOL     -0.671323
     55 O11         1.7930   -0.9360   -3.1470 o         1 MOL     -0.486806
     56 H20         3.9090    0.2160   -2.1870 hn        1 MOL      0.221516
     57 H21         3.6140    2.1350   -4.1370 h1        1 MOL      0.007144
     58 H22         1.2910    2.1070   -3.7890 hc        1 MOL      0.130904
     59 H23         1.3360    1.3900   -2.1510 hc        1 MOL      0.130904
     60 H24         1.9450    0.9470   -5.5390 hn        1 MOL      0.333708
     61 H25         1.9340   -0.8240   -5.5140 hn        1 MOL      0.333708
     62 N7          3.2220    4.5910   -3.4110 n         1 MOL     -0.304454
     63 C20         3.0680    6.0030   -2.9950 c3        1 MOL     -0.297477
     64 C21         1.6270    6.3390   -2.5190 c         1 MOL      0.517981
     65 O12         0.5810    5.9520   -3.1090 o         1 MOL     -0.510002
     66 H26         3.2700    4.3720   -4.3960 hn        1 MOL      0.261870
     67 H27         3.3510    6.6030   -3.8640 h1        1 MOL      0.147204
     68 H28         3.8150    6.2180   -2.2300 h1        1 MOL      0.147204
     69 N8          1.6030    7.0250   -1.4440 n         1 MOL     -0.370819
     70 C22         0.3480    7.5680   -0.8660 c3        1 MOL     -0.250447
     71 C23        -0.6510    6.5500   -0.3130 c         1 MOL      0.598045
     72 O13        -1.8940    6.7300   -0.4560 o         1 MOL     -0.563905
     73 C24         0.7730    8.4730    0.4170 c3        1 MOL      0.544257
     74 C25        -0.1900    9.6040    0.5760 c3        1 MOL     -0.302121
     75 O14         1.0250    7.7820    1.5710 oh        1 MOL     -0.658829
     76 H29         2.4900    7.3270   -1.0610 hn        1 MOL      0.251203
     77 H30        -0.0320    8.2590   -1.6170 h1        1 MOL      0.159265
     78 H31         1.6750    9.0370    0.2020 h1        1 MOL     -0.066542
     79 H32         1.3080    8.4360    2.2020 ho        1 MOL      0.410900
     80 H33         0.1410   10.1600    1.4460 hc        1 MOL      0.057086
     81 H34        -0.0740   10.1680   -0.3570 hc        1 MOL      0.057086
     82 H35        -1.2000    9.2050    0.5980 hc        1 MOL      0.057086
     83 N9         -0.1310    5.3650    0.0250 n         1 MOL     -0.225715
     84 C26        -0.9780    4.3040    0.6170 c3        1 MOL     -0.095876
     85 C27        -1.3470    3.1220   -0.2570 c         1 MOL      0.615224
     86 O15        -0.9560    3.0540   -1.3910 o         1 MOL     -0.474279
     87 C28        -0.3440    3.8420    1.9660 c3        1 MOL      0.176392
     88 C29         1.0710    3.1920    1.7070 c3        1 MOL     -0.241644
     89 C30        -0.3310    4.8710    2.9950 c3        1 MOL     -0.541566
     90 C31         1.5200    2.4500    3.0280 c3        1 MOL     -0.023306
     91 H36         0.8800    5.3620    0.0710 hn        1 MOL      0.232042
     92 H37        -1.9330    4.7630    0.8510 h1        1 MOL      0.066726
     93 H38        -0.9490    3.0200    2.3400 hc        1 MOL      0.014455
     94 H39         1.8140    3.9220    1.4000 hc        1 MOL      0.141288
     95 H40         0.8900    2.5080    0.8830 hc        1 MOL      0.141288
     96 H41         0.4480    5.6280    2.8580 hc        1 MOL      0.128003
     97 H42        -1.2400    5.4690    2.9690 hc        1 MOL      0.128003
     98 H43        -0.2030    4.3310    3.9290 hc        1 MOL      0.128003
     99 H44         2.5080    2.0140    2.8620 hc        1 MOL      0.024057
    100 H45         1.5340    3.1130    3.8880 hc        1 MOL      0.024057
    101 H46         0.8270    1.6650    3.3260 hc        1 MOL      0.024057
    102 N10        -2.1100    2.2160    0.3980 n         1 MOL     -0.653258
    103 C32        -2.2240    0.8270   -0.1790 c3        1 MOL      0.175861
    104 C33        -3.6030    0.2040   -0.0390 c         1 MOL      0.557776
    105 O16        -3.7450   -0.9670   -0.1670 o         1 MOL     -0.496827
    106 C34        -1.0360   -0.0390    0.2940 c3        1 MOL     -0.051344
    107 C35        -0.5270   -0.9520   -0.7750 c         1 MOL      0.917656
    108 O17         0.4540   -1.6180   -0.5970 o         1 MOL     -0.803006
    109 O18        -1.0920   -1.0840   -1.8780 o         1 MOL     -0.803006
    110 H47        -2.3220    2.3650    1.3750 hn        1 MOL      0.318315
    111 H48        -1.9890    0.9740   -1.2330 h1        1 MOL      0.005338
    112 H49        -1.4360   -0.6370    1.1060 hc        1 MOL     -0.025546
    113 H50        -0.2050    0.6310    0.5210 hc        1 MOL     -0.025546
    114 N11        -4.6080    0.9990    0.3450 n         1 MOL     -0.430990
    115 C36        -6.0660    0.8030    0.2370 c3        1 MOL      0.347734
    116 C37        -6.5320   -0.6060    0.7310 c         1 MOL      0.235940
    117 O19        -6.5070   -0.8350    1.9430 o         1 MOL     -0.509356
    118 C38        -6.8030    1.9580    0.9010 c3        1 MOL     -0.181963
    119 C39        -8.3110    1.8910    0.6710 ca        1 MOL      0.065873
    120 C40        -8.8480    2.3740   -0.5100 ca        1 MOL     -0.161221
    121 C41        -9.1420    1.3880    1.7370 ca        1 MOL     -0.161221
    122 C42       -10.2570    2.2650   -0.6590 ca        1 MOL     -0.116718
    123 C43       -10.5290    1.2780    1.5080 ca        1 MOL     -0.116718
    124 C44       -11.0550    1.6690    0.3080 ca        1 MOL     -0.096561
    125 H51        -4.4130    1.9280    0.6780 hn        1 MOL      0.197301
    126 H52        -6.3450    0.9000   -0.8100 h1        1 MOL     -0.065608
    127 H53        -6.4770    2.8920    0.4440 hc        1 MOL      0.075647
    128 H54        -6.6040    2.0090    1.9660 hc        1 MOL      0.075647
    129 H55        -8.1930    2.8700   -1.2180 ha        1 MOL      0.136770
    130 H56        -8.6390    1.0590    2.6390 ha        1 MOL      0.136770
    131 H57       -10.7770    2.6570   -1.5260 ha        1 MOL      0.102939
    132 H58       -11.1670    0.7890    2.2240 ha        1 MOL      0.102939
    133 H59       -12.0960    1.4780    0.1090 ha        1 MOL      0.095549
    134 N12        -7.0030   -1.5280   -0.1040 n         1 MOL      0.057292
    135 C45        -7.4770   -2.8530    0.3550 c3        1 MOL      0.009847
    136 C46        -6.4160   -3.6460    1.0670 c         1 MOL      0.367596
    137 O20        -6.6590   -4.5770    1.7460 o         1 MOL     -0.547172
    138 C47        -8.1490   -3.6010   -0.8230 c3        1 MOL     -0.135709
    139 C48        -7.3720   -2.9370   -1.9520 c3        1 MOL      0.135714
    140 C49        -7.1340   -1.5110   -1.5500 c3        1 MOL     -0.219874
    141 H60        -8.2630   -2.7050    1.0930 h1        1 MOL      0.061734
    142 H61        -7.9910   -4.6760   -0.7900 hc        1 MOL      0.055577
    143 H62        -9.2030   -3.3490   -0.8770 hc        1 MOL      0.055577
    144 H63        -6.3680   -3.3610   -1.9410 hc        1 MOL     -0.014526
    145 H64        -7.8800   -3.1000   -2.9060 hc        1 MOL     -0.014526
    146 H65        -6.2320   -1.1920   -2.0850 h1        1 MOL      0.079642
    147 H66        -8.0000   -0.9070   -1.8050 h1        1 MOL      0.079642
    148 N13        -5.1530   -3.2750    1.0170 n         1 MOL      0.002861
    149 C50        -4.1770   -3.9110    1.9260 c3        1 MOL     -0.087680
    150 C51        -4.0900   -3.0710    3.2260 c         1 MOL      0.413659
    151 O21        -3.9670   -3.6350    4.3110 o         1 MOL     -0.543318
    152 C52        -2.7790   -3.9100    1.3200 c3        1 MOL      0.000358
    153 C53        -2.8120   -4.8640    0.0600 c3        1 MOL     -0.007224
    154 C54        -1.6950   -4.4850   -0.9290 c         1 MOL      0.531400
    155 O22        -0.5210   -4.4630   -0.4780 o         1 MOL     -0.687429
    156 O23        -1.9670   -4.0820   -2.1080 o         1 MOL     -0.687429
    157 H67        -4.7610   -2.5360    0.4540 hn        1 MOL      0.142281
    158 H68        -4.4870   -4.9420    2.0710 h1        1 MOL      0.087740
    159 H69        -2.2030   -4.3670    2.1160 hc        1 MOL      0.062296
    160 H70        -2.5640   -2.8710    1.0580 hc        1 MOL      0.062296
    161 H71        -3.7210   -4.8150   -0.5480 hc        1 MOL     -0.015836
    162 H72        -2.6770   -5.9080    0.3480 hc        1 MOL     -0.015836
    163 N14        -4.1300   -1.7010    3.2540 n         1 MOL     -0.121512
    164 C55        -3.8990   -0.8410    4.4050 c3        1 MOL     -0.187789
    165 H73        -3.0000   -0.2470    4.2400 h1        1 MOL      0.077803
    166 H74        -4.7530   -0.1770    4.5410 h1        1 MOL      0.077803
    167 H75        -3.7680   -1.4550    5.2960 h1        1 MOL      0.077803
    168 H76        -4.4550   -1.2470    2.4110 hn        1 MOL      0.134093
    169 Ca1         0.3450   -3.0400   -2.6770 Ca        1 MOL      1.673470
    170 O24         1.6070   -3.0850   -5.1140 oh        1 MOL     -0.754148
    171 H77         1.0930   -2.9410   -5.9120 ho        1 MOL      0.365433
    172 H78         2.3000   -3.6910   -5.3760 ho        1 MOL      0.365433
    173 O25         0.3040   -5.5510   -3.5930 oh        1 MOL     -0.754148
    174 H79         1.1840   -5.8930   -3.4460 ho        1 MOL      0.365433
    175 H80         0.1130   -5.7340   -4.5110 ho        1 MOL      0.365433
    176 O26        -1.2770   -3.1770   -4.9150 oh        1 MOL     -0.754148
    177 H81        -2.1220   -3.2540   -4.4850 ho        1 MOL      0.365433
    178 H82        -0.9970   -4.0790   -5.0760 ho        1 MOL      0.365433
@<TRIPOS>BOND
     1    1    2 1   
     2    1    4 1   
     3    1    5 1   
     4    1    6 1   
     5    2    3 2   
     6    2    7 1   
     7    7    8 1   
     8    7   15 1   
     9    8    9 1   
    10    8   11 1   
    11    8   16 1   
    12    9   10 2   
    13    9   19 1   
    14   11   12 1   
    15   11   17 1   
    16   11   18 1   
    17   12   13 1   
    18   12   14 1   
    19   19   20 1   
    20   19   24 1   
    21   20   21 1   
    22   20   23 1   
    23   20   25 1   
    24   21   22 2   
    25   21   29 1   
    26   23   26 1   
    27   23   27 1   
    28   23   28 1   
    29   29   30 1   
    30   29   37 1   
    31   30   31 1   
    32   30   33 1   
    33   30   38 1   
    34   31   32 2   
    35   31   41 1   
    36   33   34 1   
    37   33   39 1   
    38   33   40 1   
    39   34   35 1   
    40   34   36 1   
    41   41   42 1   
    42   41   45 1   
    43   42   43 1   
    44   42   46 1   
    45   42   47 1   
    46   43   44 2   
    47   43   48 1   
    48   48   49 1   
    49   48   56 1   
    50   49   50 1   
    51   49   52 1   
    52   49   57 1   
    53   50   51 2   
    54   50   62 1   
    55   52   53 1   
    56   52   58 1   
    57   52   59 1   
    58   53   54 1   
    59   53   55 2   
    60   54   60 1   
    61   54   61 1   
    62   62   63 1   
    63   62   66 1   
    64   63   64 1   
    65   63   67 1   
    66   63   68 1   
    67   64   65 2   
    68   64   69 1   
    69   69   70 1   
    70   69   76 1   
    71   70   71 1   
    72   70   73 1   
    73   70   77 1   
    74   71   72 2   
    75   71   83 1   
    76   73   74 1   
    77   73   75 1   
    78   73   78 1   
    79   74   80 1   
    80   74   81 1   
    81   74   82 1   
    82   75   79 1   
    83   83   84 1   
    84   83   91 1   
    85   84   85 1   
    86   84   87 1   
    87   84   92 1   
    88   85   86 2   
    89   85  102 1   
    90   87   88 1   
    91   87   89 1   
    92   87   93 1   
    93   88   90 1   
    94   88   94 1   
    95   88   95 1   
    96   89   96 1   
    97   89   97 1   
    98   89   98 1   
    99   90   99 1   
   100   90  100 1   
   101   90  101 1   
   102  102  103 1   
   103  102  110 1   
   104  103  104 1   
   105  103  106 1   
   106  103  111 1   
   107  104  105 2   
   108  104  114 1   
   109  106  107 1   
   110  106  112 1   
   111  106  113 1   
   112  107  108 1   
   113  107  109 1   
   114  114  115 1   
   115  114  125 1   
   116  115  116 1   
   117  115  118 1   
   118  115  126 1   
   119  116  117 2   
   120  116  134 1   
   121  118  119 1   
   122  118  127 1   
   123  118  128 1   
   124  119  120 ar  
   125  119  121 ar  
   126  120  122 ar  
   127  120  129 1   
   128  121  123 ar  
   129  121  130 1   
   130  122  124 ar  
   131  122  131 1   
   132  123  124 ar  
   133  123  132 1   
   134  124  133 1   
   135  134  135 1   
   136  134  140 1   
   137  135  136 1   
   138  135  138 1   
   139  135  141 1   
   140  136  137 2   
   141  136  148 1   
   142  138  139 1   
   143  138  142 1   
   144  138  143 1   
   145  139  140 1   
   146  139  144 1   
   147  139  145 1   
   148  140  146 1   
   149  140  147 1   
   150  148  149 1   
   151  148  157 1   
   152  149  150 1   
   153  149  152 1   
   154  149  158 1   
   155  150  151 2   
   156  150  163 1   
   157  152  153 1   
   158  152  159 1   
   159  152  160 1   
   160  153  154 1   
   161  153  161 1   
   162  153  162 1   
   163  154  155 1   
   164  154  156 1   
   165  163  164 1   
   166  163  168 1   
   167  164  165 1   
   168  164  166 1   
   169  164  167 1   
   170  170  171 1   
   171  170  172 1   
   172  173  174 1   
   173  173  175 1   
   174  176  177 1   
   175  176  178 1   
@<TRIPOS>SUBSTRUCTURE
     1 MOL         1 TEMP              0 ****  ****    0 ROOT
