@<TRIPOS>MOLECULE
MOL
  192   187     1     0     0
SMALL
resp


@<TRIPOS>ATOM
      1 C1          0.0930   -4.1140    3.4270 c3        1 MOL     -0.523820
      2 C2          0.8180   -3.7190    2.1430 c         1 MOL      0.656020
      3 O1          1.4040   -2.6690    1.9010 o         1 MOL     -0.505096
      4 H1          0.1320   -5.1970    3.5470 hc        1 MOL      0.137184
      5 H2          0.5760   -3.6380    4.2790 hc        1 MOL      0.137184
      6 H3         -0.9470   -3.7920    3.3720 hc        1 MOL      0.137184
      7 N1          0.9190   -4.7070    1.2710 n         1 MOL     -0.438301
      8 C3          1.4370   -4.6740   -0.1020 c3        1 MOL     -0.266804
      9 C4          2.9370   -4.3350   -0.2290 c         1 MOL      0.744695
     10 O2          3.4120   -3.7530   -1.1950 o         1 MOL     -0.516255
     11 C5          0.5640   -3.7660   -1.0390 c3        1 MOL     -0.284421
     12 C6         -0.9430   -3.9930   -0.8260 c         1 MOL      0.873783
     13 O3         -1.4450   -5.0410   -1.3310 o         1 MOL     -0.773275
     14 O4         -1.6820   -3.2540   -0.1080 o         1 MOL     -0.773275
     15 H4          0.5890   -5.6310    1.5360 hn        1 MOL      0.265812
     16 H5          1.2840   -5.6730   -0.5040 h1        1 MOL      0.139435
     17 H6          0.6770   -3.8530   -2.1220 hc        1 MOL      0.110853
     18 H7          0.8800   -2.7520   -0.8190 hc        1 MOL      0.110853
     19 N2          3.7830   -4.6500    0.7590 n         1 MOL     -0.513373
     20 C7          5.2590   -4.3980    0.8630 c3        1 MOL     -0.165743
     21 C8          6.0520   -5.1390   -0.1900 c         1 MOL      0.477091
     22 O5          5.8220   -6.2480   -0.6060 o         1 MOL     -0.578175
     23 C9          5.7510   -4.6200    2.3470 c3        1 MOL      0.174395
     24 C10         5.5880   -6.1490    2.5620 c3        1 MOL      0.094495
     25 C11         4.9650   -3.7860    3.3880 c3        1 MOL     -0.176920
     26 C12         5.7970   -6.6260    4.0280 c3        1 MOL     -0.152961
     27 H8          3.3650   -5.1320    1.5470 hn        1 MOL      0.301881
     28 H9          5.2470   -3.3260    0.6530 h1        1 MOL      0.170494
     29 H10         6.8180   -4.4740    2.5120 hc        1 MOL      0.054961
     30 H11         6.3150   -6.6430    1.9280 hc        1 MOL     -0.015685
     31 H12         4.5850   -6.4550    2.2560 hc        1 MOL     -0.015685
     32 H13         5.0070   -2.7260    3.1300 hc        1 MOL      0.040648
     33 H14         3.9490   -4.1640    3.3000 hc        1 MOL      0.040648
     34 H15         5.2980   -3.9620    4.4080 hc        1 MOL      0.040648
     35 H16         6.7460   -6.2210    4.4060 hc        1 MOL      0.020375
     36 H17         4.9310   -6.3890    4.6450 hc        1 MOL      0.020375
     37 H18         5.8710   -7.7050    4.1310 hc        1 MOL      0.020375
     38 N3          7.2280   -4.6600   -0.5710 n         1 MOL     -0.329398
     39 C13         7.8200   -3.3250   -0.3550 c3        1 MOL     -0.152622
     40 C14         7.2690   -2.2170   -1.2220 c         1 MOL      0.833861
     41 O6          7.0050   -1.1350   -0.6730 o         1 MOL     -0.593814
     42 C15         9.2700   -3.4580   -0.7140 c3        1 MOL     -0.267220
     43 C16        10.0080   -2.2040   -0.2650 c         1 MOL      0.668658
     44 O7         10.3470   -1.5270   -1.2670 o         1 MOL     -0.692381
     45 O8         10.1930   -1.8630    0.9390 o         1 MOL     -0.692381
     46 H19         7.7100   -5.2210   -1.2570 hn        1 MOL      0.276786
     47 H20         7.6980   -2.9680    0.6590 h1        1 MOL      0.075785
     48 H21         9.3660   -3.8050   -1.7370 hc        1 MOL      0.039856
     49 H22         9.6330   -4.3680   -0.2540 hc        1 MOL      0.039856
     50 N4          6.8350   -2.5590   -2.4900 n         1 MOL     -0.590039
     51 C17         5.8470   -1.8250   -3.2770 c3        1 MOL      0.028743
     52 C18         6.0850   -0.3360   -3.4990 c         1 MOL      0.576161
     53 O9          6.9680   -0.0130   -4.2330 o         1 MOL     -0.543570
     54 H23         7.1310   -3.4830   -2.7780 hn        1 MOL      0.310112
     55 H24         4.8270   -2.1460   -3.0450 h1        1 MOL      0.045740
     56 H25         5.9350   -2.2640   -4.2660 h1        1 MOL      0.045740
     57 N5          5.2040    0.4740   -2.9280 n         1 MOL     -0.685757
     58 C19         5.3320    1.9600   -2.9660 c3        1 MOL      0.498087
     59 C20         5.9780    2.5920   -1.7760 c         1 MOL      0.401028
     60 O10         6.7060    3.5560   -1.9510 o         1 MOL     -0.542268
     61 C21         4.0050    2.5850   -3.3700 c3        1 MOL     -0.131367
     62 C22         2.8460    2.4030   -2.3560 c         1 MOL      0.620961
     63 O11         3.0990    2.2330   -1.1440 o         1 MOL     -0.661711
     64 O12         1.6640    2.5190   -2.7650 o         1 MOL     -0.661711
     65 H26         4.5300    0.0760   -2.2880 hn        1 MOL      0.313151
     66 H27         5.9740    2.3540   -3.7580 h1        1 MOL     -0.031817
     67 H28         3.6880    2.1670   -4.3250 hc        1 MOL     -0.015338
     68 H29         4.2560    3.6300   -3.5370 hc        1 MOL     -0.015338
     69 N6          5.8730    2.0480   -0.5190 n         1 MOL     -0.115086
     70 C23         6.1820    2.8040    0.7320 c3        1 MOL     -0.508885
     71 C24         5.4510    4.1940    0.8720 c         1 MOL      0.545907
     72 O13         6.0010    5.0730    1.6530 o         1 MOL     -0.607132
     73 H30         5.1390    1.3740   -0.3780 hn        1 MOL      0.218464
     74 H31         7.2480    2.9690    0.8330 h1        1 MOL      0.203103
     75 H32         5.8500    2.1490    1.5450 h1        1 MOL      0.203103
     76 N7          4.2920    4.3670    0.2510 n         1 MOL      0.056584
     77 C25         3.4150    5.4780    0.3080 c3        1 MOL     -0.061395
     78 C26         2.8450    5.7900    1.7200 c         1 MOL      0.470756
     79 O14         2.3450    6.8780    1.9460 o         1 MOL     -0.514623
     80 C27         3.9770    6.7280   -0.5600 c3        1 MOL      0.026742
     81 C28         4.2820    6.2300   -1.9660 c3        1 MOL     -0.050196
     82 C29         4.5970    7.2780   -3.0820 c         1 MOL      0.627889
     83 N8          5.0320    6.9520   -4.2790 n         1 MOL     -0.811570
     84 O15         4.4180    8.4860   -2.8640 o         1 MOL     -0.586259
     85 H33         4.0810    3.5670   -0.3300 hn        1 MOL      0.016809
     86 H34         2.5480    5.1730   -0.2700 h1        1 MOL      0.125821
     87 H35         4.8460    7.1800   -0.0730 hc        1 MOL      0.002350
     88 H36         3.1790    7.4670   -0.7020 hc        1 MOL      0.002350
     89 H37         3.4220    5.6720   -2.3500 hc        1 MOL      0.024610
     90 H38         5.1540    5.5770   -1.9120 hc        1 MOL      0.024610
     91 H39         5.3580    6.0100   -4.4490 hn        1 MOL      0.360611
     92 H40         5.2510    7.6550   -4.9780 hn        1 MOL      0.360611
     93 N9          2.8110    4.7850    2.6250 n         1 MOL     -0.399519
     94 C30         1.9870    4.6750    3.8840 c3        1 MOL      0.173056
     95 C31         0.7350    3.8120    3.8690 c         1 MOL      0.493761
     96 O16        -0.1470    4.0100    4.7200 o         1 MOL     -0.563377
     97 C32         2.8980    4.2560    5.0600 c3        1 MOL      0.043331
     98 C33         3.5780    2.9010    4.7700 c3        1 MOL     -0.201515
     99 C34         4.0250    5.2410    5.2940 c3        1 MOL     -0.201515
    100 H41         3.1780    3.9370    2.2280 hn        1 MOL      0.173879
    101 H42         1.5970    5.6660    4.1230 h1        1 MOL      0.058934
    102 H43         2.2810    4.2000    5.9550 hc        1 MOL      0.019151
    103 H44         3.9390    2.3850    5.6530 hc        1 MOL      0.051932
    104 H45         2.8790    2.1300    4.4270 hc        1 MOL      0.051932
    105 H46         4.3750    2.7740    4.0450 hc        1 MOL      0.051932
    106 H47         3.6060    6.2380    5.4030 hc        1 MOL      0.051932
    107 H48         4.6290    4.9400    6.1500 hc        1 MOL      0.051932
    108 H49         4.7670    5.3260    4.5010 hc        1 MOL      0.051932
    109 N10         0.6350    2.8570    2.9050 n         1 MOL     -0.568801
    110 C35        -0.5810    2.0270    2.7230 c3        1 MOL      0.447183
    111 C36        -1.3070    2.4330    1.4050 c         1 MOL      0.494836
    112 O17        -0.6530    3.0320    0.4920 o         1 MOL     -0.518831
    113 C37        -0.1240    0.5280    2.8140 c3        1 MOL     -0.335642
    114 C38        -1.1080   -0.5210    2.3960 c         1 MOL      0.517492
    115 N11        -1.1280   -0.9810    1.1660 n         1 MOL     -0.263094
    116 O18        -1.9080   -0.8620    3.2120 o         1 MOL     -0.598269
    117 H50         1.3760    2.7000    2.2350 hn        1 MOL      0.284961
    118 H51        -1.3110    2.2160    3.5040 h1        1 MOL      0.020978
    119 H52         0.1280    0.4060    3.8670 hc        1 MOL      0.088854
    120 H53         0.7320    0.2630    2.1980 hc        1 MOL      0.088854
    121 H54        -0.5930   -0.5650    0.4040 hn        1 MOL      0.217891
    122 H55        -1.7130   -1.7510    0.8810 hn        1 MOL      0.217891
    123 N12        -2.5710    1.9530    1.1720 n         1 MOL     -0.704727
    124 C39        -3.4410    2.1930   -0.0590 c3        1 MOL      0.326519
    125 C40        -4.8800    1.9060    0.4020 c         1 MOL      0.607472
    126 O19        -5.0120    1.0010    1.2220 o         1 MOL     -0.542586
    127 C41        -2.9800    1.2080   -1.0730 c3        1 MOL     -0.069013
    128 C42        -3.7240    1.2010   -2.3970 ca        1 MOL     -0.118879
    129 C43        -4.4500    0.0340   -2.7060 ca        1 MOL     -0.030429
    130 C44        -3.8270    2.3380   -3.2320 ca        1 MOL     -0.030429
    131 C45        -5.4070    0.0450   -3.8070 ca        1 MOL     -0.396814
    132 C46        -4.8000    2.4030   -4.2190 ca        1 MOL     -0.396814
    133 C47        -5.5830    1.2370   -4.5020 ca        1 MOL      0.426429
    134 O20        -6.4040    1.2950   -5.5150 oh        1 MOL     -0.496620
    135 H56        -3.0490    1.3610    1.8390 hn        1 MOL      0.308303
    136 H57        -3.3610    3.2230   -0.4060 h1        1 MOL      0.021782
    137 H58        -3.0870    0.2130   -0.6430 hc        1 MOL      0.053421
    138 H59        -1.9690    1.5430   -1.3100 hc        1 MOL      0.053421
    139 H60        -4.3980   -0.8550   -2.1000 ha        1 MOL      0.137813
    140 H61        -3.1840    3.1790   -3.0310 ha        1 MOL      0.137813
    141 H62        -6.0080   -0.8350   -4.0110 ha        1 MOL      0.184368
    142 H63        -4.8930    3.3090   -4.8030 ha        1 MOL      0.184368
    143 H64        -6.9610    0.5290   -5.6790 ho        1 MOL      0.356905
    144 N13        -5.9130    2.4490   -0.2480 n         1 MOL     -0.789081
    145 C48        -7.3470    2.0840   -0.0870 c3        1 MOL      0.541655
    146 C49        -8.0920    1.6500   -1.3490 c         1 MOL      0.655745
    147 O21        -8.1780    2.5110   -2.1860 o         1 MOL     -0.591134
    148 C50        -8.0150    3.1330    0.7750 c3        1 MOL     -0.116386
    149 C51        -9.5140    3.0130    1.0320 c3        1 MOL     -0.414359
    150 C52       -10.0250    4.2030    1.8530 c         1 MOL      0.788856
    151 O22        -9.7870    4.1900    3.0730 o         1 MOL     -0.731169
    152 O23       -10.7250    5.1370    1.3730 o         1 MOL     -0.731169
    153 H65        -5.7700    3.1160   -0.9950 hn        1 MOL      0.328739
    154 H66        -7.2940    1.2520    0.6140 h1        1 MOL     -0.097414
    155 H67        -7.7960    4.0810    0.2760 hc        1 MOL      0.052173
    156 H68        -7.4340    3.1560    1.6990 hc        1 MOL      0.052173
    157 H69        -9.6770    2.0760    1.5620 hc        1 MOL      0.098907
    158 H70       -10.0210    2.8950    0.0720 hc        1 MOL      0.098907
    159 N14        -8.6750    0.4750   -1.4910 n         1 MOL     -0.613710
    160 C53        -8.1760   -0.7260   -0.7900 c3        1 MOL     -0.005790
    161 C54        -8.8270   -0.8770    0.6050 c         1 MOL      0.416536
    162 O24        -9.9480   -0.5050    0.7590 o         1 MOL     -0.516759
    163 C55        -8.5650   -1.9920   -1.5990 c3        1 MOL     -0.050238
    164 C56        -8.1690   -3.3390   -1.0040 c3        1 MOL     -0.054263
    165 C57        -6.7060   -3.6990   -0.9910 c         1 MOL      0.421059
    166 O25        -6.2830   -4.4800   -1.8480 o         1 MOL     -0.616850
    167 O26        -5.9410   -3.1500   -0.1550 o         1 MOL     -0.616850
    168 H71        -9.2800    0.4450   -2.2940 hn        1 MOL      0.319906
    169 H72        -7.0830   -0.6790   -0.7060 h1        1 MOL      0.039131
    170 H73        -8.2520   -1.9620   -2.6460 hc        1 MOL      0.059122
    171 H74        -9.6570   -2.0470   -1.6290 hc        1 MOL      0.059122
    172 H75        -8.8380   -4.0420   -1.5070 hc        1 MOL      0.009909
    173 H76        -8.5790   -3.3850    0.0070 hc        1 MOL      0.009909
    174 N15        -8.0280   -1.3370    1.5500 n         1 MOL     -0.108276
    175 C58        -8.3990   -1.5220    2.9570 c3        1 MOL     -0.019579
    176 H77        -8.4180   -2.5880    3.1900 h1        1 MOL      0.039366
    177 H78        -7.6690   -1.0250    3.5950 h1        1 MOL      0.039366
    178 H79        -9.3870   -1.0950    3.1320 h1        1 MOL      0.039366
    179 H80        -7.1280   -1.6800    1.2690 hn        1 MOL      0.171712
    180 Ca1        -3.8690   -4.7060   -0.3880 Ca        1 MOL      1.726661
    181 O27        -5.4230   -6.0400    1.2750 oh        1 MOL     -0.882085
    182 H81        -5.4080   -6.3320    2.1910 ho        1 MOL      0.420762
    183 H82        -6.2890   -6.2920    0.9590 ho        1 MOL      0.420762
    184 O28        -3.6600   -3.3160   -2.8710 oh        1 MOL     -0.882085
    185 O29        -3.9260   -6.5470   -2.3720 oh        1 MOL     -0.882085
    186 H83        -4.4390   -3.1480   -3.4010 ho        1 MOL      0.420762
    187 H84        -3.0980   -6.8240   -2.7770 ho        1 MOL      0.420762
    188 H85        -2.9410   -2.9300   -3.3660 ho        1 MOL      0.420762
    189 H86        -4.5470   -7.2260   -2.6150 ho        1 MOL      0.420762
    190 O30        -3.6840   -3.9230    2.2300 oh        1 MOL     -0.882085
    191 H87        -3.1120   -3.8810    3.0050 ho        1 MOL      0.420762
    192 H88        -4.5220   -3.5810    2.5390 ho        1 MOL      0.420762
@<TRIPOS>BOND
     1    1    2 1   
     2    1    4 1   
     3    1    5 1   
     4    1    6 1   
     5    2    3 2   
     6    2    7 1   
     7    7    8 1   
     8    7   15 1   
     9    8    9 1   
    10    8   11 1   
    11    8   16 1   
    12    9   10 2   
    13    9   19 1   
    14   11   12 1   
    15   11   17 1   
    16   11   18 1   
    17   12   13 1   
    18   12   14 1   
    19   19   20 1   
    20   19   27 1   
    21   20   21 1   
    22   20   23 1   
    23   20   28 1   
    24   21   22 2   
    25   21   38 1   
    26   23   24 1   
    27   23   25 1   
    28   23   29 1   
    29   24   26 1   
    30   24   30 1   
    31   24   31 1   
    32   25   32 1   
    33   25   33 1   
    34   25   34 1   
    35   26   35 1   
    36   26   36 1   
    37   26   37 1   
    38   38   39 1   
    39   38   46 1   
    40   39   40 1   
    41   39   42 1   
    42   39   47 1   
    43   40   41 2   
    44   40   50 1   
    45   42   43 1   
    46   42   48 1   
    47   42   49 1   
    48   43   44 1   
    49   43   45 1   
    50   50   51 1   
    51   50   54 1   
    52   51   52 1   
    53   51   55 1   
    54   51   56 1   
    55   52   53 2   
    56   52   57 1   
    57   57   58 1   
    58   57   65 1   
    59   58   59 1   
    60   58   61 1   
    61   58   66 1   
    62   59   60 2   
    63   59   69 1   
    64   61   62 1   
    65   61   67 1   
    66   61   68 1   
    67   62   63 1   
    68   62   64 1   
    69   69   70 1   
    70   69   73 1   
    71   70   71 1   
    72   70   74 1   
    73   70   75 1   
    74   71   72 2   
    75   71   76 1   
    76   76   77 1   
    77   76   85 1   
    78   77   78 1   
    79   77   80 1   
    80   77   86 1   
    81   78   79 2   
    82   78   93 1   
    83   80   81 1   
    84   80   87 1   
    85   80   88 1   
    86   81   82 1   
    87   81   89 1   
    88   81   90 1   
    89   82   83 1   
    90   82   84 2   
    91   83   91 1   
    92   83   92 1   
    93   93   94 1   
    94   93  100 1   
    95   94   95 1   
    96   94   97 1   
    97   94  101 1   
    98   95   96 2   
    99   95  109 1   
   100   97   98 1   
   101   97   99 1   
   102   97  102 1   
   103   98  103 1   
   104   98  104 1   
   105   98  105 1   
   106   99  106 1   
   107   99  107 1   
   108   99  108 1   
   109  109  110 1   
   110  109  117 1   
   111  110  111 1   
   112  110  113 1   
   113  110  118 1   
   114  111  112 2   
   115  111  123 1   
   116  113  114 1   
   117  113  119 1   
   118  113  120 1   
   119  114  115 1   
   120  114  116 2   
   121  115  121 1   
   122  115  122 1   
   123  123  124 1   
   124  123  135 1   
   125  124  125 1   
   126  124  127 1   
   127  124  136 1   
   128  125  126 2   
   129  125  144 1   
   130  127  128 1   
   131  127  137 1   
   132  127  138 1   
   133  128  129 ar  
   134  128  130 ar  
   135  129  131 ar  
   136  129  139 1   
   137  130  132 ar  
   138  130  140 1   
   139  131  133 ar  
   140  131  141 1   
   141  132  133 ar  
   142  132  142 1   
   143  133  134 1   
   144  134  143 1   
   145  144  145 1   
   146  144  153 1   
   147  145  146 1   
   148  145  148 1   
   149  145  154 1   
   150  146  147 2   
   151  146  159 1   
   152  148  149 1   
   153  148  155 1   
   154  148  156 1   
   155  149  150 1   
   156  149  157 1   
   157  149  158 1   
   158  150  151 1   
   159  150  152 1   
   160  159  160 1   
   161  159  168 1   
   162  160  161 1   
   163  160  163 1   
   164  160  169 1   
   165  161  162 2   
   166  161  174 1   
   167  163  164 1   
   168  163  170 1   
   169  163  171 1   
   170  164  165 1   
   171  164  172 1   
   172  164  173 1   
   173  165  166 1   
   174  165  167 1   
   175  174  175 1   
   176  174  179 1   
   177  175  176 1   
   178  175  177 1   
   179  175  178 1   
   180  181  182 1   
   181  181  183 1   
   182  184  186 1   
   183  184  188 1   
   184  185  187 1   
   185  185  189 1   
   186  190  191 1   
   187  190  192 1   
@<TRIPOS>SUBSTRUCTURE
     1 MOL         1 TEMP              0 ****  ****    0 ROOT
