@<TRIPOS>MOLECULE
MOL
  192   187     1     0     0
SMALL
resp


@<TRIPOS>ATOM
      1 C1         -9.0790    0.0720   -2.4350 c3        1 MOL     -0.529629
      2 C2         -8.0610   -0.0590   -1.3110 c         1 MOL      0.866404
      3 O1         -6.8260    0.0230   -1.4690 o         1 MOL     -0.743364
      4 H1         -9.1930    1.1230   -2.7000 hc        1 MOL      0.130339
      5 H2         -8.7340   -0.4860   -3.3060 hc        1 MOL      0.130339
      6 H3        -10.0390   -0.3250   -2.1060 hc        1 MOL      0.130339
      7 N1         -8.5700   -0.4400   -0.1100 n         1 MOL     -0.652244
      8 C3         -7.7790   -0.4910    1.0970 c3        1 MOL      0.092884
      9 C4         -7.0300   -1.8990    1.2910 c         1 MOL      0.237585
     10 O2         -6.9680   -2.5030    2.3570 o         1 MOL     -0.410504
     11 C5         -8.6460   -0.1060    2.3170 c3        1 MOL     -0.235148
     12 C6         -9.8800   -0.8880    2.5110 c         1 MOL      0.754419
     13 O3        -10.8190   -0.4720    3.2100 o         1 MOL     -0.655936
     14 O4        -10.0340   -2.0210    1.9040 o         1 MOL     -0.655936
     15 H4         -9.5550   -0.6060    0.0260 hn        1 MOL      0.312171
     16 H5         -7.0260    0.2970    1.0350 h1        1 MOL      0.122769
     17 H6         -8.7760    0.9710    2.2580 hc        1 MOL      0.077006
     18 H7         -8.0470   -0.2500    3.2110 hc        1 MOL      0.077006
     19 N2         -6.3490   -2.3950    0.2250 n         1 MOL     -0.116449
     20 C7         -5.8420   -3.8460    0.1170 c3        1 MOL      0.082962
     21 C8         -4.3620   -3.8830    0.6030 c         1 MOL      0.343496
     22 O5         -4.0680   -4.7270    1.4440 o         1 MOL     -0.497006
     23 C9         -6.1010   -4.3720   -1.2290 c3        1 MOL     -0.106662
     24 C10        -7.5340   -4.4720   -1.5720 c3        1 MOL      0.285236
     25 C11        -7.7470   -5.1990   -2.8490 c3        1 MOL     -0.219233
     26 C12        -9.2810   -5.2420   -3.1670 c3        1 MOL      0.094147
     27 N3         -9.4690   -5.6550   -4.5420 n4        1 MOL     -0.241412
     28 H8         -6.2900   -1.8190   -0.6040 hn        1 MOL      0.228179
     29 H9         -6.3420   -4.5180    0.8230 h1        1 MOL      0.096028
     30 H10        -5.8020   -5.4240   -1.2410 hc        1 MOL      0.010006
     31 H11        -5.5720   -3.8260   -2.0220 hc        1 MOL      0.010006
     32 H12        -7.9700   -3.4850   -1.7300 hc        1 MOL     -0.052295
     33 H13        -8.0710   -4.9500   -0.7490 hc        1 MOL     -0.052295
     34 H14        -7.3810   -6.2230   -2.7350 hc        1 MOL      0.064373
     35 H15        -7.1640   -4.6770   -3.6140 hc        1 MOL      0.064373
     36 H16        -9.8280   -4.3100   -3.0010 hx        1 MOL      0.078677
     37 H17        -9.7520   -5.9220   -2.4630 hx        1 MOL      0.078677
     38 H18       -10.4190   -5.7710   -4.8730 hn        1 MOL      0.256928
     39 H19        -9.0900   -4.9800   -5.1870 hn        1 MOL      0.256928
     40 H20        -8.9190   -6.4860   -4.6910 hn        1 MOL      0.256928
     41 N4         -3.4840   -2.9120    0.2420 n         1 MOL     -0.251567
     42 C13        -3.4510   -1.7780   -0.6620 c3        1 MOL      0.069284
     43 C14        -3.7590   -0.4940    0.0890 c         1 MOL      0.180932
     44 O6         -3.6840   -0.4020    1.2620 o         1 MOL     -0.376830
     45 C15        -2.1870   -1.6600   -1.4840 c3        1 MOL     -0.419456
     46 C16        -1.0070   -1.7860   -0.6070 c         1 MOL      0.704485
     47 O7         -0.7860   -0.9870    0.3370 o         1 MOL     -0.643222
     48 O8         -0.2150   -2.7300   -0.8600 o         1 MOL     -0.643222
     49 H21        -2.5730   -3.1680    0.5950 hn        1 MOL      0.278033
     50 H22        -4.2960   -2.0040   -1.3180 h1        1 MOL      0.053932
     51 H23        -2.1220   -0.6810   -1.9640 hc        1 MOL      0.114591
     52 H24        -2.1560   -2.4690   -2.2230 hc        1 MOL      0.114591
     53 N5         -3.9090    0.5710   -0.6860 n         1 MOL     -0.005119
     54 C17        -4.1790    1.9520   -0.2510 c3        1 MOL     -0.078586
     55 C18        -3.0350    2.7190    0.3840 c         1 MOL      0.575727
     56 O9         -1.9120    2.2880    0.4370 o         1 MOL     -0.521008
     57 H25        -3.8780    0.3870   -1.6750 hn        1 MOL      0.172716
     58 H26        -4.8610    1.8080    0.5940 h1        1 MOL      0.057248
     59 H27        -4.7610    2.5150   -0.9800 h1        1 MOL      0.057248
     60 N6         -3.4150    3.8920    0.9140 n         1 MOL     -0.579232
     61 C19        -2.4680    4.8330    1.5970 c3        1 MOL      0.334478
     62 C20        -2.8300    6.3460    1.3280 c         1 MOL      0.456603
     63 O10        -3.9400    6.6360    1.0220 o         1 MOL     -0.542780
     64 C21        -2.3170    4.4840    3.0920 c3        1 MOL     -0.262290
     65 C22        -1.7180    3.0670    3.3760 c         1 MOL      0.717458
     66 O11        -2.2680    2.2860    4.1860 o         1 MOL     -0.666416
     67 O12        -0.5310    2.8720    2.9740 o         1 MOL     -0.666416
     68 H28        -4.3850    4.1530    0.8920 hn        1 MOL      0.311309
     69 H29        -1.5410    4.6650    1.0450 h1        1 MOL     -0.045339
     70 H30        -3.2920    4.6100    3.5720 hc        1 MOL      0.059441
     71 H31        -1.7020    5.1920    3.6380 hc        1 MOL      0.059441
     72 N7         -1.9710    7.3460    1.2830 n         1 MOL     -0.362392
     73 C23        -0.5380    7.3610    1.5950 c3        1 MOL     -0.061426
     74 C24         0.2850    6.8330    0.4890 c         1 MOL      0.711927
     75 O13        -0.1350    7.0380   -0.6510 o         1 MOL     -0.526544
     76 H32        -2.4290    8.2200    1.0680 hn        1 MOL      0.306031
     77 H33        -0.3370    6.8080    2.5130 h1        1 MOL      0.051913
     78 H34        -0.2370    8.4040    1.6490 h1        1 MOL      0.051913
     79 N8          1.4070    6.0670    0.7420 n         1 MOL     -0.765052
     80 C25         2.1030    5.2490   -0.2960 c3        1 MOL      0.260714
     81 C26         1.3730    3.9500   -0.7490 c         1 MOL      0.263633
     82 O14         0.9080    3.1480    0.0960 o         1 MOL     -0.648983
     83 C27         3.5070    4.9420    0.2330 c3        1 MOL      0.594831
     84 C28         4.3240    6.2140    0.5060 c3        1 MOL     -0.367145
     85 O15         4.2590    4.2780   -0.7440 oh        1 MOL     -0.670299
     86 H35         1.5840    5.8800    1.7110 hn        1 MOL      0.341954
     87 H36         2.2280    5.8820   -1.1720 h1        1 MOL      0.049285
     88 H37         3.4420    4.4360    1.1950 h1        1 MOL     -0.057638
     89 H38         4.8540    3.7360   -0.2210 ho        1 MOL      0.379941
     90 H39         5.1090    5.8720    1.1850 hc        1 MOL      0.079460
     91 H40         4.6000    6.5720   -0.4820 hc        1 MOL      0.079460
     92 H41         3.7710    6.9830    1.0460 hc        1 MOL      0.079460
     93 N9          1.3950    3.5900   -2.0330 n         1 MOL     -0.367224
     94 C29         0.9140    2.3530   -2.6330 c3        1 MOL     -0.066156
     95 C30         1.4580    0.9660   -2.2510 c         1 MOL      0.690290
     96 O16         1.2260    0.5250   -1.1580 o         1 MOL     -0.374972
     97 C31        -0.6270    2.3340   -2.6310 c3        1 MOL      0.535927
     98 C32        -1.3350    3.6940   -2.3410 c3        1 MOL      0.086384
     99 C33        -1.2700    1.6570   -3.8490 c3        1 MOL     -0.443436
    100 C34        -1.0040    4.7160   -3.4290 c3        1 MOL     -0.305762
    101 H42         1.9310    4.2350   -2.5970 hn        1 MOL      0.299369
    102 H43         1.2290    2.4660   -3.6650 h1        1 MOL      0.031004
    103 H44        -0.9620    1.6990   -1.8180 hc        1 MOL     -0.292877
    104 H45        -1.2080    4.1220   -1.3530 hc        1 MOL      0.031185
    105 H46        -2.4050    3.4820   -2.3870 hc        1 MOL      0.031185
    106 H47        -0.9530    0.6150   -3.9090 hc        1 MOL      0.091756
    107 H48        -2.3520    1.6040   -3.6690 hc        1 MOL      0.091756
    108 H49        -1.0770    2.1780   -4.7850 hc        1 MOL      0.091756
    109 H50         0.0580    4.6880   -3.6490 hc        1 MOL      0.055619
    110 H51        -1.4930    4.5160   -4.3800 hc        1 MOL      0.055619
    111 H52        -1.2270    5.7200   -3.0530 hc        1 MOL      0.055619
    112 N10         2.0630    0.2000   -3.2230 n         1 MOL     -0.613408
    113 C35         2.5450   -1.1930   -3.0020 c3        1 MOL     -0.049258
    114 C36         4.0670   -1.4090   -3.0230 c         1 MOL      0.590602
    115 O17         4.6130   -2.4990   -3.1100 o         1 MOL     -0.610599
    116 C37         1.7610   -2.2340   -3.7740 c3        1 MOL      0.534358
    117 C38         1.8460   -2.0200   -5.3010 c3        1 MOL     -0.378089
    118 O18         0.4220   -2.1000   -3.3970 oh        1 MOL     -0.579654
    119 H53         2.0530    0.5700   -4.1580 hn        1 MOL      0.290209
    120 H54         2.2550   -1.4270   -1.9820 h1        1 MOL      0.065236
    121 H55         2.1010   -3.2430   -3.5420 h1        1 MOL     -0.030433
    122 H56         0.4830   -2.1350   -2.4480 ho        1 MOL      0.299987
    123 H57         1.1410   -1.2460   -5.5870 hc        1 MOL      0.084699
    124 H58         2.8990   -1.8780   -5.5740 hc        1 MOL      0.084699
    125 H59         1.4810   -2.9250   -5.7780 hc        1 MOL      0.084699
    126 N11         4.8570   -0.3340   -2.9540 n         1 MOL     -0.222802
    127 C39         6.3440   -0.4010   -3.1420 c3        1 MOL     -0.232510
    128 C40         7.0950   -0.8470   -1.8120 c         1 MOL      0.609762
    129 O19         7.7380   -0.0530   -1.1320 o         1 MOL     -0.521581
    130 C41         6.9050    0.9340   -3.5950 c3        1 MOL      0.324203
    131 C42         6.6410    1.1150   -5.0650 c3        1 MOL     -0.130453
    132 O20         6.3900    2.0170   -2.8860 oh        1 MOL     -0.523653
    133 H60         4.5110    0.6190   -2.9190 hn        1 MOL      0.187145
    134 H61         6.5420   -1.1250   -3.9220 h1        1 MOL      0.127360
    135 H62         7.9690    1.0120   -3.3860 h1        1 MOL      0.010593
    136 H63         6.6730    1.7250   -2.0130 ho        1 MOL      0.344415
    137 H64         5.6240    1.4190   -5.2750 hc        1 MOL      0.032366
    138 H65         7.3330    1.8270   -5.5220 hc        1 MOL      0.032366
    139 H66         6.8330    0.2120   -5.6420 hc        1 MOL      0.032366
    140 N12         6.9710   -2.1350   -1.4740 n         1 MOL     -0.791152
    141 C43         6.7480   -2.5420   -0.0710 c3        1 MOL      0.455767
    142 C44         5.5830   -1.8290    0.6730 c         1 MOL      0.472856
    143 O21         5.1140   -0.8260    0.2320 o         1 MOL     -0.486086
    144 C45         8.0420   -2.3390    0.7380 c3        1 MOL     -0.530409
    145 C46         9.3200   -2.8340    0.1040 c3        1 MOL      0.061881
    146 C47        10.3760   -2.9340    1.1780 c3        1 MOL     -0.238003
    147 C48        11.7210   -2.9530    0.5770 c3        1 MOL      0.210957
    148 N13        12.6520   -3.7430    1.3760 n4        1 MOL     -0.305861
    149 H67         6.4710   -2.6390   -2.1900 hn        1 MOL      0.395057
    150 H68         6.4940   -3.6000   -0.0570 h1        1 MOL     -0.004090
    151 H69         7.8370   -2.8870    1.6660 hc        1 MOL      0.160133
    152 H70         8.2040   -1.2890    0.9450 hc        1 MOL      0.160133
    153 H71         9.6120   -2.1070   -0.6590 hc        1 MOL      0.061987
    154 H72         9.2680   -3.8270   -0.3390 hc        1 MOL      0.061987
    155 H73        10.2880   -3.8140    1.8210 hc        1 MOL      0.094829
    156 H74        10.3140   -2.0110    1.7610 hc        1 MOL      0.094829
    157 H75        12.2170   -2.0110    0.3710 hx        1 MOL      0.036768
    158 H76        11.6580   -3.3180   -0.4430 hx        1 MOL      0.036768
    159 H77        13.5450   -3.6620    0.9100 hn        1 MOL      0.243998
    160 H78        12.8680   -3.4170    2.3090 hn        1 MOL      0.243998
    161 H79        12.4540   -4.7310    1.4560 hn        1 MOL      0.243998
    162 N14         5.0550   -2.5720    1.6140 n         1 MOL     -0.544075
    163 C49         3.8780   -2.3460    2.4870 c3        1 MOL      0.043197
    164 C50         2.5760   -2.1730    1.6310 c         1 MOL      0.413802
    165 O22         2.0040   -1.0900    1.6880 o         1 MOL     -0.616970
    166 C51         3.6180   -3.4480    3.5840 c3        1 MOL      0.082988
    167 C52         4.6530   -3.3060    4.6590 c3        1 MOL     -0.085766
    168 C53         4.2950   -4.2040    5.8480 c         1 MOL      0.660031
    169 O23         3.9950   -3.6160    6.9270 o         1 MOL     -0.660465
    170 O24         4.3040   -5.4210    5.6080 o         1 MOL     -0.660465
    171 H80         5.5890   -3.4060    1.8280 hn        1 MOL      0.340057
    172 H81         3.9120   -1.3750    2.9830 h1        1 MOL      0.126811
    173 H82         3.6310   -4.4650    3.1880 hc        1 MOL      0.023569
    174 H83         2.5950   -3.2950    3.9390 hc        1 MOL      0.023569
    175 H84         4.6430   -2.2660    4.9690 hc        1 MOL     -0.049907
    176 H85         5.6450   -3.5730    4.2780 hc        1 MOL     -0.049907
    177 N15         2.1290   -3.0720    0.8010 n         1 MOL     -0.239358
    178 C54         2.5840   -4.4630    0.5230 c3        1 MOL      0.062916
    179 H86         3.5640   -4.6210    0.9750 h1        1 MOL      0.008084
    180 H87         1.8710   -5.1710    0.9450 h1        1 MOL      0.008084
    181 H88         2.6530   -4.6150   -0.5540 h1        1 MOL      0.008084
    182 H89         1.3010   -2.8340    0.2700 hn        1 MOL      0.277062
    183 Ca1         0.4140    1.0840    1.4730 Ca        1 MOL      1.809572
    184 O25         3.1410    1.4460    0.9860 oh        1 MOL     -0.902955
    185 H90         3.7920    0.7650    0.8190 ho        1 MOL      0.421796
    186 H91         3.6290    2.1310    1.4520 ho        1 MOL      0.421796
    187 O26        -1.1130   -0.0370    3.4040 oh        1 MOL     -0.902955
    188 H92        -1.0600   -0.6650    4.1170 ho        1 MOL      0.421796
    189 H93        -1.6750    0.6610    3.7410 ho        1 MOL      0.421796
    190 O27         1.6770    1.4890    3.7790 oh        1 MOL     -0.902955
    191 H94         0.9930    1.7710    4.3830 ho        1 MOL      0.421796
    192 H95         2.4710    1.4990    4.3080 ho        1 MOL      0.421796
@<TRIPOS>BOND
     1    1    2 1   
     2    1    4 1   
     3    1    5 1   
     4    1    6 1   
     5    2    3 2   
     6    2    7 1   
     7    7    8 1   
     8    7   15 1   
     9    8    9 1   
    10    8   11 1   
    11    8   16 1   
    12    9   10 2   
    13    9   19 1   
    14   11   12 1   
    15   11   17 1   
    16   11   18 1   
    17   12   13 1   
    18   12   14 1   
    19   19   20 1   
    20   19   28 1   
    21   20   21 1   
    22   20   23 1   
    23   20   29 1   
    24   21   22 2   
    25   21   41 1   
    26   23   24 1   
    27   23   30 1   
    28   23   31 1   
    29   24   25 1   
    30   24   32 1   
    31   24   33 1   
    32   25   26 1   
    33   25   34 1   
    34   25   35 1   
    35   26   27 1   
    36   26   36 1   
    37   26   37 1   
    38   27   38 1   
    39   27   39 1   
    40   27   40 1   
    41   41   42 1   
    42   41   49 1   
    43   42   43 1   
    44   42   45 1   
    45   42   50 1   
    46   43   44 2   
    47   43   53 1   
    48   45   46 1   
    49   45   51 1   
    50   45   52 1   
    51   46   47 1   
    52   46   48 1   
    53   53   54 1   
    54   53   57 1   
    55   54   55 1   
    56   54   58 1   
    57   54   59 1   
    58   55   56 2   
    59   55   60 1   
    60   60   61 1   
    61   60   68 1   
    62   61   62 1   
    63   61   64 1   
    64   61   69 1   
    65   62   63 2   
    66   62   72 1   
    67   64   65 1   
    68   64   70 1   
    69   64   71 1   
    70   65   66 1   
    71   65   67 1   
    72   72   73 1   
    73   72   76 1   
    74   73   74 1   
    75   73   77 1   
    76   73   78 1   
    77   74   75 2   
    78   74   79 1   
    79   79   80 1   
    80   79   86 1   
    81   80   81 1   
    82   80   83 1   
    83   80   87 1   
    84   81   82 2   
    85   81   93 1   
    86   83   84 1   
    87   83   85 1   
    88   83   88 1   
    89   84   90 1   
    90   84   91 1   
    91   84   92 1   
    92   85   89 1   
    93   93   94 1   
    94   93  101 1   
    95   94   95 1   
    96   94   97 1   
    97   94  102 1   
    98   95   96 2   
    99   95  112 1   
   100   97   98 1   
   101   97   99 1   
   102   97  103 1   
   103   98  100 1   
   104   98  104 1   
   105   98  105 1   
   106   99  106 1   
   107   99  107 1   
   108   99  108 1   
   109  100  109 1   
   110  100  110 1   
   111  100  111 1   
   112  112  113 1   
   113  112  119 1   
   114  113  114 1   
   115  113  116 1   
   116  113  120 1   
   117  114  115 2   
   118  114  126 1   
   119  116  117 1   
   120  116  118 1   
   121  116  121 1   
   122  117  123 1   
   123  117  124 1   
   124  117  125 1   
   125  118  122 1   
   126  126  127 1   
   127  126  133 1   
   128  127  128 1   
   129  127  130 1   
   130  127  134 1   
   131  128  129 2   
   132  128  140 1   
   133  130  131 1   
   134  130  132 1   
   135  130  135 1   
   136  131  137 1   
   137  131  138 1   
   138  131  139 1   
   139  132  136 1   
   140  140  141 1   
   141  140  149 1   
   142  141  142 1   
   143  141  144 1   
   144  141  150 1   
   145  142  143 2   
   146  142  162 1   
   147  144  145 1   
   148  144  151 1   
   149  144  152 1   
   150  145  146 1   
   151  145  153 1   
   152  145  154 1   
   153  146  147 1   
   154  146  155 1   
   155  146  156 1   
   156  147  148 1   
   157  147  157 1   
   158  147  158 1   
   159  148  159 1   
   160  148  160 1   
   161  148  161 1   
   162  162  163 1   
   163  162  171 1   
   164  163  164 1   
   165  163  166 1   
   166  163  172 1   
   167  164  165 2   
   168  164  177 1   
   169  166  167 1   
   170  166  173 1   
   171  166  174 1   
   172  167  168 1   
   173  167  175 1   
   174  167  176 1   
   175  168  169 1   
   176  168  170 1   
   177  177  178 1   
   178  177  182 1   
   179  178  179 1   
   180  178  180 1   
   181  178  181 1   
   182  184  185 1   
   183  184  186 1   
   184  187  188 1   
   185  187  189 1   
   186  190  191 1   
   187  190  192 1   
@<TRIPOS>SUBSTRUCTURE
     1 MOL         1 TEMP              0 ****  ****    0 ROOT
