@<TRIPOS>MOLECULE
MOL
  181   177     1     0     0
SMALL
resp


@<TRIPOS>ATOM
      1 C1          2.5800   -3.5050    3.7680 c3        1 MOL     -0.452602
      2 C2          3.8740   -2.7200    3.4860 c         1 MOL      0.708121
      3 O1          4.0450   -1.5350    3.7970 o         1 MOL     -0.605234
      4 H1          2.6600   -4.0010    4.7350 hc        1 MOL      0.119106
      5 H2          1.7340   -2.8190    3.7800 hc        1 MOL      0.119106
      6 H3          2.4310   -4.2520    2.9880 hc        1 MOL      0.119106
      7 N1          4.9120   -3.4460    2.9310 n         1 MOL     -0.651310
      8 C3          6.2830   -2.9220    2.6270 c3        1 MOL      0.464309
      9 C4          6.5020   -2.2540    1.2480 c         1 MOL      0.576836
     10 O2          6.1580   -2.9240    0.2210 o         1 MOL     -0.578835
     11 C5          7.2320   -4.0970    2.8720 c3        1 MOL     -0.350743
     12 C6          8.7300   -3.8170    3.0320 c         1 MOL      0.790793
     13 O3          9.2460   -2.7770    2.7040 o         1 MOL     -0.752411
     14 O4          9.3500   -4.8340    3.4590 o         1 MOL     -0.752411
     15 H4          4.6540   -4.3800    2.6630 hn        1 MOL      0.297913
     16 H5          6.5110   -2.1640    3.3820 h1        1 MOL     -0.026082
     17 H6          7.0910   -4.7230    1.9970 hc        1 MOL      0.034299
     18 H7          6.9670   -4.4940    3.8550 hc        1 MOL      0.034299
     19 N2          6.8190   -0.9860    1.2240 n         1 MOL     -0.637202
     20 C7          6.9320   -0.2000   -0.0880 c3        1 MOL      0.438143
     21 C8          5.5820    0.2200   -0.5490 c         1 MOL      0.387779
     22 O5          4.7500    0.6050    0.3500 o         1 MOL     -0.503775
     23 C9          7.9430    0.8850    0.2790 c3        1 MOL     -0.378707
     24 H8          7.1700   -0.5710    2.0780 hn        1 MOL      0.322265
     25 H9          7.3810   -0.6900   -0.9540 h1        1 MOL      0.004483
     26 H10         8.8840    0.3960    0.5230 hc        1 MOL      0.095093
     27 H11         8.0250    1.5830   -0.5600 hc        1 MOL      0.095093
     28 H12         7.5290    1.4920    1.0800 hc        1 MOL      0.095093
     29 N3          5.2850    0.2880   -1.8930 n         1 MOL     -0.477724
     30 C10         4.0360    0.6050   -2.4800 c3        1 MOL      0.185423
     31 C11         3.9100    2.0810   -3.0220 c         1 MOL      0.468816
     32 O6          3.0110    2.3430   -3.8180 o         1 MOL     -0.537032
     33 C12         3.6050   -0.3370   -3.5510 c3        1 MOL     -0.142190
     34 C13         3.4940   -1.7630   -3.0650 c         1 MOL      0.803428
     35 O7          4.5490   -2.4610   -3.0130 o         1 MOL     -0.772895
     36 O8          2.3640   -2.2800   -2.8580 o         1 MOL     -0.772895
     37 H13         5.9360   -0.0550   -2.5810 hn        1 MOL      0.268226
     38 H14         3.3010    0.5110   -1.6770 h1        1 MOL      0.057275
     39 H15         4.2780   -0.2220   -4.4030 hc        1 MOL      0.036945
     40 H16         2.6010   -0.1300   -3.9130 hc        1 MOL      0.036945
     41 N4          4.7650    2.9600   -2.6060 n         1 MOL     -0.477404
     42 C14         5.0840    4.2090   -3.3560 c3        1 MOL     -0.021401
     43 C15         4.1530    5.4120   -3.1400 c         1 MOL      0.538498
     44 O9          4.5270    6.4900   -3.5800 o         1 MOL     -0.523308
     45 H17         5.4570    2.6200   -1.9610 hn        1 MOL      0.300995
     46 H18         4.9470    3.9580   -4.4060 h1        1 MOL      0.085201
     47 H19         6.1350    4.5030   -3.3450 h1        1 MOL      0.085201
     48 N5          2.9910    5.2020   -2.4810 n         1 MOL     -0.623281
     49 C16         1.9260    6.2560   -2.3700 c3        1 MOL      0.259296
     50 C17         1.2880    6.5470   -1.0040 c         1 MOL      0.402259
     51 O10         0.5310    7.4530   -0.9100 o         1 MOL     -0.480320
     52 C18         0.9120    6.0640   -3.4500 c3        1 MOL     -0.234525
     53 C19         1.3970    6.2160   -4.9150 c         1 MOL      0.669327
     54 N6          1.2790    5.1510   -5.7140 n         1 MOL     -0.770452
     55 O11         1.6470    7.3400   -5.3880 o         1 MOL     -0.558894
     56 H20         2.7200    4.2460   -2.3340 hn        1 MOL      0.325919
     57 H21         2.3630    7.1960   -2.6980 h1        1 MOL      0.057822
     58 H22         0.2020    6.8580   -3.2140 hc        1 MOL      0.062334
     59 H23         0.3810    5.1370   -3.2120 hc        1 MOL      0.062334
     60 H24         0.9290    4.2920   -5.3030 hn        1 MOL      0.365734
     61 H25         1.4720    5.3120   -6.6950 hn        1 MOL      0.365734
     62 N7          1.6120    5.7390   -0.0360 n         1 MOL     -0.294045
     63 C20         1.1700    5.8770    1.3010 c3        1 MOL     -0.110848
     64 C21        -0.3510    5.5300    1.5600 c         1 MOL      0.456413
     65 O12        -1.1280    5.0980    0.6680 o         1 MOL     -0.401676
     66 H26         2.3220    5.0430   -0.2580 hn        1 MOL      0.264955
     67 H27         1.2350    6.9140    1.6410 h1        1 MOL      0.083223
     68 H28         1.9050    5.3120    1.8650 h1        1 MOL      0.083223
     69 N8         -0.7900    5.7670    2.8030 n         1 MOL     -0.228339
     70 C22        -2.1840    5.6780    3.1090 c3        1 MOL     -0.469730
     71 C23        -2.7290    4.2570    3.3030 c         1 MOL      0.549171
     72 O13        -3.9280    4.0580    3.1270 o         1 MOL     -0.546301
     73 C24        -2.6260    6.5240    4.3360 c3        1 MOL      0.538395
     74 C25        -2.2550    5.9080    5.7120 c3        1 MOL     -0.304067
     75 O14        -2.1080    7.7820    4.2860 oh        1 MOL     -0.643898
     76 H29        -0.2350    6.2010    3.5280 hn        1 MOL      0.205978
     77 H30        -2.7220    6.1770    2.3050 h1        1 MOL      0.215914
     78 H31        -3.7030    6.6370    4.2850 h1        1 MOL      0.013745
     79 H32        -1.1540    7.7360    4.1750 ho        1 MOL      0.388297
     80 H33        -1.2990    5.4060    5.6390 hc        1 MOL      0.068367
     81 H34        -2.2910    6.6690    6.4930 hc        1 MOL      0.068367
     82 H35        -2.9930    5.1520    6.0030 hc        1 MOL      0.068367
     83 N9         -1.8580    3.3130    3.6210 n         1 MOL     -0.221142
     84 C26        -2.1400    1.9220    3.8600 c3        1 MOL      0.019495
     85 C27        -1.5840    1.0870    2.6050 c         1 MOL      0.501150
     86 O15        -0.4020    1.2260    2.1950 o         1 MOL     -0.466301
     87 C28        -1.5550    1.4290    5.1790 c3        1 MOL      0.037449
     88 C29        -2.1370    2.1330    6.4500 c3        1 MOL     -0.130398
     89 C30        -1.8520   -0.1070    5.2780 c3        1 MOL     -0.048049
     90 C31        -3.7250    2.0940    6.5050 c3        1 MOL     -0.252313
     91 H36        -0.8770    3.5160    3.4680 hn        1 MOL      0.167751
     92 H37        -3.2130    1.7240    3.8810 h1        1 MOL      0.056678
     93 H38        -0.4710    1.5680    5.2190 hc        1 MOL      0.034394
     94 H39        -1.8980    3.1990    6.4910 hc        1 MOL      0.047576
     95 H40        -1.7970    1.6930    7.3900 hc        1 MOL      0.047576
     96 H41        -2.9230   -0.3320    5.2410 hc        1 MOL      0.029252
     97 H42        -1.3310   -0.7560    4.5780 hc        1 MOL      0.029252
     98 H43        -1.4220   -0.5070    6.1880 hc        1 MOL      0.029252
     99 H44        -4.2840    2.6090    5.7340 hc        1 MOL      0.068620
    100 H45        -4.0470    1.0760    6.7260 hc        1 MOL      0.068620
    101 H46        -4.0090    2.7310    7.3460 hc        1 MOL      0.068620
    102 N10        -2.4570    0.1560    2.1050 n         1 MOL     -0.601015
    103 C32        -2.1210   -0.6970    0.9270 c3        1 MOL      0.153610
    104 C33        -3.2130   -0.7870   -0.1650 c         1 MOL      0.483825
    105 O16        -3.1590   -1.6220   -1.0230 o         1 MOL     -0.501153
    106 C34        -1.6840   -2.1180    1.3860 c3        1 MOL      0.197495
    107 C35        -0.4780   -2.6550    0.6500 c         1 MOL      0.640318
    108 O17         0.2670   -1.9430   -0.0740 o         1 MOL     -0.730769
    109 O18        -0.1680   -3.8630    0.8640 o         1 MOL     -0.730769
    110 H47        -3.4100    0.0740    2.4220 hn        1 MOL      0.301874
    111 H48        -1.2050   -0.3050    0.4870 h1        1 MOL      0.076551
    112 H49        -2.5450   -2.7870    1.3060 hc        1 MOL     -0.056938
    113 H50        -1.4900   -2.1060    2.4600 hc        1 MOL     -0.056938
    114 N11        -4.3410   -0.0670   -0.0220 n         1 MOL     -0.483908
    115 C36        -5.3400   -0.1330   -1.0310 c3        1 MOL      0.514501
    116 C37        -5.9960   -1.4590   -1.0580 c         1 MOL      0.067858
    117 O19        -6.2710   -2.0100    0.0020 o         1 MOL     -0.428786
    118 C38        -6.3000    1.0940   -1.0360 c3        1 MOL     -0.379558
    119 C39        -5.4870    2.3500   -1.3210 ca        1 MOL      0.166470
    120 C40        -5.2220    2.6790   -2.6810 ca        1 MOL     -0.260088
    121 C41        -5.0790    3.2420   -0.2510 ca        1 MOL     -0.260088
    122 C42        -4.5320    3.8530   -2.9920 ca        1 MOL      0.036508
    123 C43        -4.4630    4.4450   -0.6140 ca        1 MOL      0.036508
    124 C44        -4.2370    4.7940   -1.9640 ca        1 MOL     -0.257653
    125 H51        -4.6300    0.4360    0.8050 hn        1 MOL      0.269303
    126 H52        -4.8670   -0.0650   -2.0100 h1        1 MOL     -0.035631
    127 H53        -6.6900    1.1000   -0.0240 hc        1 MOL      0.109146
    128 H54        -7.0960    0.9100   -1.7600 hc        1 MOL      0.109146
    129 H55        -5.5820    2.0260   -3.4680 ha        1 MOL      0.138682
    130 H56        -5.3740    3.0760    0.7630 ha        1 MOL      0.138682
    131 H57        -4.4720    4.1640   -4.0240 ha        1 MOL      0.064224
    132 H58        -4.2890    5.1540    0.1800 ha        1 MOL      0.064224
    133 H59        -3.9370    5.8270   -2.0980 ha        1 MOL      0.147965
    134 N12        -6.3390   -2.0360   -2.2830 n         1 MOL      0.059980
    135 C45        -7.0040   -3.3620   -2.4100 c3        1 MOL      0.123916
    136 C46        -6.4560   -4.5640   -1.5280 c         1 MOL      0.217920
    137 O20        -7.1650   -5.4770   -1.1910 o         1 MOL     -0.517716
    138 C47        -7.0870   -3.6800   -3.8960 c3        1 MOL     -0.018014
    139 C48        -6.9060   -2.3380   -4.5430 c3        1 MOL      0.080339
    140 C49        -6.0670   -1.4640   -3.5890 c3        1 MOL     -0.404282
    141 H60        -7.9830   -3.2010   -1.9440 h1        1 MOL      0.036743
    142 H61        -6.3350   -4.3850   -4.2460 hc        1 MOL      0.031535
    143 H62        -8.1030   -3.9460   -4.1950 hc        1 MOL      0.031535
    144 H63        -6.4700   -2.5410   -5.5170 hc        1 MOL     -0.009877
    145 H64        -7.8990   -1.9030   -4.6460 hc        1 MOL     -0.009877
    146 H65        -5.0700   -1.7500   -3.9290 h1        1 MOL      0.166598
    147 H66        -6.3490   -0.4220   -3.6920 h1        1 MOL      0.166598
    148 N13        -5.2180   -4.5480   -1.1740 n         1 MOL     -0.089577
    149 C50        -4.4520   -5.5410   -0.3540 c3        1 MOL     -0.085904
    150 C51        -4.7790   -5.4080    1.1760 c         1 MOL      0.369144
    151 O21        -4.4360   -6.3150    1.9300 o         1 MOL     -0.524372
    152 C52        -2.9120   -5.2450   -0.6090 c3        1 MOL      0.040664
    153 C53        -2.3790   -5.6120   -1.9370 c3        1 MOL     -0.164303
    154 C54        -0.8860   -5.2710   -2.1070 c         1 MOL      0.701413
    155 O22        -0.5680   -4.2170   -2.6870 o         1 MOL     -0.730728
    156 O23         0.0370   -5.9370   -1.5310 o         1 MOL     -0.730728
    157 H67        -4.5900   -3.8050   -1.4660 hn        1 MOL      0.178786
    158 H68        -4.6620   -6.5560   -0.7000 h1        1 MOL      0.112919
    159 H69        -2.2820   -5.6080    0.2030 hc        1 MOL      0.040805
    160 H70        -2.7640   -4.1680   -0.5430 hc        1 MOL      0.040805
    161 H71        -3.0310   -5.2510   -2.7310 hc        1 MOL      0.008560
    162 H72        -2.4350   -6.6940   -2.0150 hc        1 MOL      0.008560
    163 N14        -5.3070   -4.2180    1.5890 n         1 MOL     -0.048944
    164 C55        -5.5990   -3.8620    2.9500 c3        1 MOL     -0.155731
    165 H73        -5.8190   -4.7630    3.5210 h1        1 MOL      0.058243
    166 H74        -4.7370   -3.3570    3.3860 h1        1 MOL      0.058243
    167 H75        -6.4620   -3.1970    2.9740 h1        1 MOL      0.058243
    168 H76        -5.4550   -3.5490    0.8480 hn        1 MOL      0.129237
    169 Ca1         1.7440   -4.0140   -1.1870 Ca        1 MOL      1.830018
    170 O24         3.4310   -2.4990    0.4860 oh        1 MOL     -0.875522
    171 H77         4.3690   -2.3610    0.5830 ho        1 MOL      0.419604
    172 H78         3.0430   -1.7310    0.9070 ho        1 MOL      0.419604
    173 O25         4.3010   -4.6820   -1.6310 oh        1 MOL     -0.875522
    174 H79         5.1120   -5.1650   -1.4870 ho        1 MOL      0.419604
    175 H80         4.5810   -3.8770   -2.0690 ho        1 MOL      0.419604
    176 O26         2.1220   -4.9700   -3.5570 oh        1 MOL     -0.875522
    177 H81         3.0620   -4.9410   -3.7520 ho        1 MOL      0.419604
    178 H82         1.6960   -4.9930   -4.4110 ho        1 MOL      0.419604
    179 O27         2.6060   -5.9900    0.4660 oh        1 MOL     -0.875522
    180 H83         2.0220   -6.3180    1.1620 ho        1 MOL      0.419604
    181 H84         3.4570   -6.3570    0.6980 ho        1 MOL      0.419604
@<TRIPOS>BOND
     1    1    2 1   
     2    1    4 1   
     3    1    5 1   
     4    1    6 1   
     5    2    3 2   
     6    2    7 1   
     7    7    8 1   
     8    7   15 1   
     9    8    9 1   
    10    8   11 1   
    11    8   16 1   
    12    9   10 2   
    13    9   19 1   
    14   11   12 1   
    15   11   17 1   
    16   11   18 1   
    17   12   13 1   
    18   12   14 1   
    19   19   20 1   
    20   19   24 1   
    21   20   21 1   
    22   20   23 1   
    23   20   25 1   
    24   21   22 2   
    25   21   29 1   
    26   23   26 1   
    27   23   27 1   
    28   23   28 1   
    29   29   30 1   
    30   29   37 1   
    31   30   31 1   
    32   30   33 1   
    33   30   38 1   
    34   31   32 2   
    35   31   41 1   
    36   33   34 1   
    37   33   39 1   
    38   33   40 1   
    39   34   35 1   
    40   34   36 1   
    41   41   42 1   
    42   41   45 1   
    43   42   43 1   
    44   42   46 1   
    45   42   47 1   
    46   43   44 2   
    47   43   48 1   
    48   48   49 1   
    49   48   56 1   
    50   49   50 1   
    51   49   52 1   
    52   49   57 1   
    53   50   51 2   
    54   50   62 1   
    55   52   53 1   
    56   52   58 1   
    57   52   59 1   
    58   53   54 1   
    59   53   55 2   
    60   54   60 1   
    61   54   61 1   
    62   62   63 1   
    63   62   66 1   
    64   63   64 1   
    65   63   67 1   
    66   63   68 1   
    67   64   65 2   
    68   64   69 1   
    69   69   70 1   
    70   69   76 1   
    71   70   71 1   
    72   70   73 1   
    73   70   77 1   
    74   71   72 2   
    75   71   83 1   
    76   73   74 1   
    77   73   75 1   
    78   73   78 1   
    79   74   80 1   
    80   74   81 1   
    81   74   82 1   
    82   75   79 1   
    83   83   84 1   
    84   83   91 1   
    85   84   85 1   
    86   84   87 1   
    87   84   92 1   
    88   85   86 2   
    89   85  102 1   
    90   87   88 1   
    91   87   89 1   
    92   87   93 1   
    93   88   90 1   
    94   88   94 1   
    95   88   95 1   
    96   89   96 1   
    97   89   97 1   
    98   89   98 1   
    99   90   99 1   
   100   90  100 1   
   101   90  101 1   
   102  102  103 1   
   103  102  110 1   
   104  103  104 1   
   105  103  106 1   
   106  103  111 1   
   107  104  105 2   
   108  104  114 1   
   109  106  107 1   
   110  106  112 1   
   111  106  113 1   
   112  107  108 1   
   113  107  109 1   
   114  114  115 1   
   115  114  125 1   
   116  115  116 1   
   117  115  118 1   
   118  115  126 1   
   119  116  117 2   
   120  116  134 1   
   121  118  119 1   
   122  118  127 1   
   123  118  128 1   
   124  119  120 ar  
   125  119  121 ar  
   126  120  122 ar  
   127  120  129 1   
   128  121  123 ar  
   129  121  130 1   
   130  122  124 ar  
   131  122  131 1   
   132  123  124 ar  
   133  123  132 1   
   134  124  133 1   
   135  134  135 1   
   136  134  140 1   
   137  135  136 1   
   138  135  138 1   
   139  135  141 1   
   140  136  137 2   
   141  136  148 1   
   142  138  139 1   
   143  138  142 1   
   144  138  143 1   
   145  139  140 1   
   146  139  144 1   
   147  139  145 1   
   148  140  146 1   
   149  140  147 1   
   150  148  149 1   
   151  148  157 1   
   152  149  150 1   
   153  149  152 1   
   154  149  158 1   
   155  150  151 2   
   156  150  163 1   
   157  152  153 1   
   158  152  159 1   
   159  152  160 1   
   160  153  154 1   
   161  153  161 1   
   162  153  162 1   
   163  154  155 1   
   164  154  156 1   
   165  163  164 1   
   166  163  168 1   
   167  164  165 1   
   168  164  166 1   
   169  164  167 1   
   170  170  171 1   
   171  170  172 1   
   172  173  174 1   
   173  173  175 1   
   174  176  177 1   
   175  176  178 1   
   176  179  180 1   
   177  179  181 1   
@<TRIPOS>SUBSTRUCTURE
     1 MOL         1 TEMP              0 ****  ****    0 ROOT
