@<TRIPOS>MOLECULE
MOL
  179   176     1     0     0
SMALL
resp


@<TRIPOS>ATOM
      1 C1          1.6340   -4.4730    5.7950 c3        1 MOL     -0.313045
      2 C2          1.6470   -4.2270    4.2800 c         1 MOL      0.702269
      3 O1          0.8120   -4.7170    3.5620 o         1 MOL     -0.587474
      4 H1          0.6920   -4.1170    6.2130 hc        1 MOL      0.082791
      5 H2          1.7370   -5.5400    5.9910 hc        1 MOL      0.082791
      6 H3          2.4630   -3.9370    6.2580 hc        1 MOL      0.082791
      7 N1          2.6570   -3.4770    3.7930 n         1 MOL     -0.400755
      8 C3          2.9130   -3.1090    2.4010 c3        1 MOL     -0.402933
      9 C4          3.4980   -4.2690    1.5670 c         1 MOL      0.793780
     10 O2          4.5450   -4.8720    1.9850 o         1 MOL     -0.567613
     11 C5          3.9120   -1.8820    2.4600 c3        1 MOL     -0.066085
     12 C6          3.9850   -1.0510    1.1890 c         1 MOL      0.461953
     13 O3          4.4300    0.1480    1.2580 o         1 MOL     -0.646179
     14 O4          3.4990   -1.5180    0.1360 o         1 MOL     -0.646179
     15 H4          3.3100   -3.1600    4.4940 hn        1 MOL      0.288296
     16 H5          1.9930   -2.7640    1.9300 h1        1 MOL      0.090952
     17 H6          4.9040   -2.3350    2.5020 hc        1 MOL      0.073898
     18 H7          3.6820   -1.1840    3.2720 hc        1 MOL      0.073898
     19 N2          2.8570   -4.6140    0.4550 n         1 MOL     -0.484229
     20 C7          3.3640   -5.6030   -0.5050 c3        1 MOL      0.033448
     21 C8          4.4640   -5.1220   -1.4940 c         1 MOL      0.332345
     22 O5          5.0940   -5.9420   -2.1840 o         1 MOL     -0.501145
     23 C9          2.2230   -6.0430   -1.3910 c3        1 MOL     -0.055943
     24 C10         1.2180   -6.9050   -0.6190 c3        1 MOL      0.014259
     25 C11        -0.0380   -7.0550   -1.5150 c3        1 MOL      0.042914
     26 C12        -1.1010   -7.9580   -0.8260 c3        1 MOL     -0.051793
     27 N3         -2.2880   -8.0670   -1.6480 n4        1 MOL     -0.119904
     28 H8          2.1670   -3.9400    0.1230 hn        1 MOL      0.326394
     29 H9          3.7190   -6.4530    0.0770 h1        1 MOL      0.105304
     30 H10         2.6100   -6.7210   -2.1560 hc        1 MOL      0.051136
     31 H11         1.7720   -5.1240   -1.7670 hc        1 MOL      0.051136
     32 H12         0.9540   -6.4290    0.3250 hc        1 MOL      0.025649
     33 H13         1.6630   -7.8700   -0.3730 hc        1 MOL      0.025649
     34 H14         0.3030   -7.3820   -2.4950 hc        1 MOL     -0.000503
     35 H15        -0.5110   -6.0860   -1.7090 hc        1 MOL     -0.000503
     36 H16        -1.2590   -7.5150    0.1560 hx        1 MOL      0.089947
     37 H17        -0.6480   -8.9430   -0.7610 hx        1 MOL      0.089947
     38 H18        -2.1040   -8.3890   -2.5820 hn        1 MOL      0.235420
     39 H19        -3.0570   -8.5130   -1.1660 hn        1 MOL      0.235420
     40 H20        -2.7040   -7.1820   -1.9080 hn        1 MOL      0.235420
     41 N4          4.6690   -3.7820   -1.5160 n         1 MOL     -0.059130
     42 C13         5.6350   -3.1420   -2.4480 c3        1 MOL     -0.070993
     43 C14         6.6480   -2.2170   -1.7550 c         1 MOL      0.305223
     44 O6          7.4960   -1.6180   -2.4090 o         1 MOL     -0.485551
     45 C15         4.9240   -2.2890   -3.5040 c3        1 MOL     -0.061871
     46 C16         4.0430   -1.2430   -2.9060 c         1 MOL      0.570855
     47 O7          4.5800   -0.1470   -2.5210 o         1 MOL     -0.679387
     48 O8          2.8280   -1.4570   -2.7570 o         1 MOL     -0.679387
     49 H21         4.2690   -3.1550   -0.8360 hn        1 MOL      0.053449
     50 H22         6.2810   -3.8650   -2.9480 h1        1 MOL      0.126483
     51 H23         4.3490   -2.9780   -4.1230 hc        1 MOL      0.048805
     52 H24         5.6750   -1.8320   -4.1570 hc        1 MOL      0.048805
     53 N5          6.6710   -2.0540   -0.4870 n         1 MOL     -0.029390
     54 C17         7.7060   -1.3350    0.2610 c3        1 MOL     -0.197266
     55 C18         7.7320    0.1550    0.1070 c         1 MOL      0.554130
     56 O9          8.7080    0.7160    0.6350 o         1 MOL     -0.578864
     57 H25         6.0890   -2.7040    0.0230 hn        1 MOL      0.156933
     58 H26         8.7000   -1.7520    0.0880 h1        1 MOL      0.114148
     59 H27         7.4500   -1.5580    1.2970 h1        1 MOL      0.114148
     60 N6          6.7930    0.8230   -0.4840 n         1 MOL     -0.187396
     61 C19         6.9610    2.2390   -0.8990 c3        1 MOL      0.015921
     62 C20         5.6430    3.0560   -0.6290 c         1 MOL      0.449002
     63 O10         4.6130    2.4430   -0.6160 o         1 MOL     -0.438913
     64 C21         7.3470    2.3560   -2.3750 c3        1 MOL     -0.093681
     65 C22         8.7470    1.8870   -2.6940 c         1 MOL      0.646660
     66 N7          8.8750    0.6330   -2.8590 n         1 MOL     -0.729622
     67 O11         9.6820    2.6750   -2.7250 o         1 MOL     -0.599945
     68 H28         6.1420    0.2620   -1.0200 hn        1 MOL      0.160556
     69 H29         7.7180    2.7660   -0.3250 h1        1 MOL      0.068460
     70 H30         7.4320    3.3980   -2.6740 hc        1 MOL      0.004322
     71 H31         6.6310    1.7690   -2.9600 hc        1 MOL      0.004322
     72 H32         8.1270   -0.0380   -2.7360 hn        1 MOL      0.342832
     73 H33         9.8070    0.3520   -3.1050 hn        1 MOL      0.342832
     74 N8          5.7590    4.3970   -0.5720 n         1 MOL     -0.372017
     75 C23         4.6290    5.3900   -0.6640 c3        1 MOL     -0.094653
     76 C24         3.6130    5.1770    0.4980 c         1 MOL      0.588316
     77 O12         3.9900    5.1930    1.6350 o         1 MOL     -0.519108
     78 H34         6.6540    4.8260   -0.3780 hn        1 MOL      0.312355
     79 H35         4.1030    5.2690   -1.6050 h1        1 MOL      0.063369
     80 H36         5.0460    6.4060   -0.6300 h1        1 MOL      0.063369
     81 N9          2.3740    5.0290    0.1760 n         1 MOL     -0.417322
     82 C25         1.2200    4.6710    1.1220 c3        1 MOL     -0.066828
     83 C26         1.1800    3.1220    1.4060 c         1 MOL      0.747388
     84 O13         1.8970    2.3680    0.7210 o         1 MOL     -0.522212
     85 C27        -0.0900    5.1780    0.4940 c3        1 MOL     -0.223638
     86 C28        -0.2350    6.6460    0.1700 ca        1 MOL      0.162433
     87 C29        -0.1840    7.5240    1.2470 ca        1 MOL     -0.173825
     88 C30        -0.4750    7.0490   -1.1430 ca        1 MOL     -0.173825
     89 C31        -0.4410    8.8880    1.0210 ca        1 MOL     -0.255499
     90 C32        -0.8540    8.3730   -1.3420 ca        1 MOL     -0.255499
     91 C33        -0.7570    9.2910   -0.2380 ca        1 MOL      0.336617
     92 O14        -1.0740   10.5890   -0.4400 oh        1 MOL     -0.478978
     93 H37         2.0460    5.2300   -0.7570 hn        1 MOL      0.243075
     94 H38         1.2960    5.1480    2.0980 h1        1 MOL      0.099395
     95 H39        -0.9830    4.8190    1.0080 hc        1 MOL      0.056950
     96 H40        -0.0390    4.6860   -0.4750 hc        1 MOL      0.056950
     97 H41        -0.0060    7.1510    2.2420 ha        1 MOL      0.141363
     98 H42        -0.5310    6.3630   -1.9680 ha        1 MOL      0.141363
     99 H43        -0.4790    9.6150    1.8110 ha        1 MOL      0.164082
    100 H44        -1.1600    8.6620   -2.3330 ha        1 MOL      0.164082
    101 H45        -1.1250   11.0770    0.3810 ho        1 MOL      0.364249
    102 N10         0.3240    2.7380    2.3810 n         1 MOL     -0.742275
    103 C34         0.0730    1.3560    2.8050 c3        1 MOL     -0.014220
    104 C35        -0.1690    0.3660    1.6000 c         1 MOL      0.564313
    105 O15         0.7980   -0.1110    1.0080 o         1 MOL     -0.563605
    106 C36         1.1530    0.7760    3.8220 c3        1 MOL      0.157849
    107 C37         0.7240   -0.6240    4.4420 c3        1 MOL     -0.053073
    108 C38         1.3550    1.7340    5.0610 c3        1 MOL     -0.211563
    109 C39        -0.6530   -0.8230    5.0160 c3        1 MOL     -0.527233
    110 H46        -0.1320    3.4780    2.9020 hn        1 MOL      0.395698
    111 H47        -0.8910    1.3410    3.3120 h1        1 MOL      0.112582
    112 H48         2.1640    0.7700    3.4460 hc        1 MOL      0.091245
    113 H49         1.4970   -0.9380    5.1510 hc        1 MOL      0.073147
    114 H50         0.7580   -1.3310    3.6150 hc        1 MOL      0.073147
    115 H51         2.0050    1.2660    5.8070 hc        1 MOL      0.051817
    116 H52         1.8330    2.6580    4.7570 hc        1 MOL      0.051817
    117 H53         0.3750    2.0010    5.4570 hc        1 MOL      0.051817
    118 H54        -1.4090   -0.1610    4.6100 hc        1 MOL      0.145934
    119 H55        -0.9020   -1.8860    4.9510 hc        1 MOL      0.145934
    120 H56        -0.5910   -0.8170    6.0980 hc        1 MOL      0.145934
    121 N11        -1.4430   -0.0360    1.4880 n         1 MOL     -0.462003
    122 C40        -1.8970   -1.1460    0.5480 c3        1 MOL     -0.129160
    123 C41        -3.3080   -0.9720   -0.0540 c         1 MOL      0.567164
    124 O16        -3.6160   -1.4870   -1.1470 o         1 MOL     -0.534721
    125 C42        -1.8090   -2.4210    1.2880 c3        1 MOL      0.233473
    126 O17        -2.8960   -2.4350    2.2650 oh        1 MOL     -0.626984
    127 H57        -2.0680    0.3650    2.1740 hn        1 MOL      0.292141
    128 H58        -1.1710   -1.1250   -0.2700 h1        1 MOL      0.136001
    129 H59        -0.8280   -2.4640    1.7670 h1        1 MOL      0.026778
    130 H60        -1.9660   -3.2530    0.6000 h1        1 MOL      0.026778
    131 H61        -3.6290   -2.9160    1.8850 ho        1 MOL      0.417711
    132 N12        -4.1980   -0.3540    0.6740 n         1 MOL     -0.466078
    133 C43        -5.5920   -0.1390    0.3110 c3        1 MOL      0.074424
    134 C44        -5.7180    0.6040   -1.0260 c         1 MOL      0.672802
    135 O18        -4.8150    1.4160   -1.3090 o         1 MOL     -0.589370
    136 C45        -6.3400    0.4130    1.5260 c3        1 MOL     -0.361304
    137 H62        -3.8470    0.1210    1.4990 hn        1 MOL      0.303330
    138 H63        -6.0230   -1.1030    0.0640 h1        1 MOL      0.083121
    139 H64        -6.0160   -0.0710    2.4410 hc        1 MOL      0.119467
    140 H65        -5.9740    1.4320    1.5660 hc        1 MOL      0.119467
    141 H66        -7.4320    0.3910    1.5050 hc        1 MOL      0.119467
    142 N13        -6.7830    0.4520   -1.8230 n         1 MOL     -0.649664
    143 C46        -7.9880   -0.4010   -1.6620 c3        1 MOL      0.311903
    144 C47        -9.3400    0.1710   -2.1310 c         1 MOL      0.277131
    145 O19        -9.4130    0.7390   -3.2520 o         1 MOL     -0.478953
    146 C48        -7.7720   -1.8750   -2.1640 c3        1 MOL     -0.019743
    147 H67        -6.7640    1.1020   -2.5830 hn        1 MOL      0.345613
    148 H68        -8.1580   -0.5220   -0.5930 h1        1 MOL     -0.089314
    149 H69        -7.6500   -1.8290   -3.2470 hc        1 MOL      0.014202
    150 H70        -6.8530   -2.3510   -1.8300 hc        1 MOL      0.014202
    151 H71        -8.6220   -2.5610   -2.0580 hc        1 MOL      0.014202
    152 N14       -10.4120    0.0580   -1.3300 n         1 MOL     -0.157529
    153 C49       -10.7190   -0.5920    0.0330 c3        1 MOL     -0.137075
    154 C50       -10.1440    0.3240    1.1400 c         1 MOL      0.397066
    155 O20        -9.9010   -0.1130    2.2890 o         1 MOL     -0.519891
    156 C51       -12.3040   -0.8440    0.2280 c3        1 MOL      0.075032
    157 C52       -12.9390   -1.7760   -0.8270 c3        1 MOL     -0.283826
    158 C53       -13.1670   -1.1410   -2.1840 c         1 MOL      0.749731
    159 O21       -13.2810    0.1180   -2.3010 o         1 MOL     -0.661808
    160 O22       -13.3210   -1.8890   -3.1650 o         1 MOL     -0.661808
    161 H72       -11.2620    0.3700   -1.7840 hn        1 MOL      0.186356
    162 H73       -10.1220   -1.4910    0.1990 h1        1 MOL      0.099397
    163 H74       -12.7910    0.1290    0.1670 hc        1 MOL      0.022304
    164 H75       -12.5320   -1.3480    1.1640 hc        1 MOL      0.022304
    165 H76       -13.8860   -2.1780   -0.4540 hc        1 MOL      0.067246
    166 H77       -12.2190   -2.5970   -0.8620 hc        1 MOL      0.067246
    167 N15       -10.0590    1.6420    0.8230 n         1 MOL     -0.182023
    168 C54        -9.6710    2.6750    1.6450 c3        1 MOL     -0.193419
    169 H78       -10.5070    2.9690    2.2800 h1        1 MOL      0.084204
    170 H79        -8.8390    2.3500    2.2690 h1        1 MOL      0.084204
    171 H80        -9.3600    3.5260    1.0390 h1        1 MOL      0.084204
    172 H81       -10.5090    1.9090   -0.0400 hn        1 MOL      0.244937
    173 Ca1         2.5810    0.5090   -0.9960 Ca        1 MOL      1.746159
    174 O23         0.0890    0.3750   -1.9710 oh        1 MOL     -0.916670
    175 H82        -0.5650    1.0470   -1.7730 ho        1 MOL      0.454253
    176 H83        -0.2610   -0.0790   -2.7440 ho        1 MOL      0.454253
    177 O24         2.2860    2.6260   -2.6380 oh        1 MOL     -0.916670
    178 H84         3.0360    3.2210   -2.6980 ho        1 MOL      0.454253
    179 H85         1.5750    3.0920   -3.0900 ho        1 MOL      0.454253
@<TRIPOS>BOND
     1    1    2 1   
     2    1    4 1   
     3    1    5 1   
     4    1    6 1   
     5    2    3 2   
     6    2    7 1   
     7    7    8 1   
     8    7   15 1   
     9    8    9 1   
    10    8   11 1   
    11    8   16 1   
    12    9   10 2   
    13    9   19 1   
    14   11   12 1   
    15   11   17 1   
    16   11   18 1   
    17   12   13 1   
    18   12   14 1   
    19   19   20 1   
    20   19   28 1   
    21   20   21 1   
    22   20   23 1   
    23   20   29 1   
    24   21   22 2   
    25   21   41 1   
    26   23   24 1   
    27   23   30 1   
    28   23   31 1   
    29   24   25 1   
    30   24   32 1   
    31   24   33 1   
    32   25   26 1   
    33   25   34 1   
    34   25   35 1   
    35   26   27 1   
    36   26   36 1   
    37   26   37 1   
    38   27   38 1   
    39   27   39 1   
    40   27   40 1   
    41   41   42 1   
    42   41   49 1   
    43   42   43 1   
    44   42   45 1   
    45   42   50 1   
    46   43   44 2   
    47   43   53 1   
    48   45   46 1   
    49   45   51 1   
    50   45   52 1   
    51   46   47 1   
    52   46   48 1   
    53   53   54 1   
    54   53   57 1   
    55   54   55 1   
    56   54   58 1   
    57   54   59 1   
    58   55   56 2   
    59   55   60 1   
    60   60   61 1   
    61   60   68 1   
    62   61   62 1   
    63   61   64 1   
    64   61   69 1   
    65   62   63 2   
    66   62   74 1   
    67   64   65 1   
    68   64   70 1   
    69   64   71 1   
    70   65   66 1   
    71   65   67 2   
    72   66   72 1   
    73   66   73 1   
    74   74   75 1   
    75   74   78 1   
    76   75   76 1   
    77   75   79 1   
    78   75   80 1   
    79   76   77 2   
    80   76   81 1   
    81   81   82 1   
    82   81   93 1   
    83   82   83 1   
    84   82   85 1   
    85   82   94 1   
    86   83   84 2   
    87   83  102 1   
    88   85   86 1   
    89   85   95 1   
    90   85   96 1   
    91   86   87 ar  
    92   86   88 ar  
    93   87   89 ar  
    94   87   97 1   
    95   88   90 ar  
    96   88   98 1   
    97   89   91 ar  
    98   89   99 1   
    99   90   91 ar  
   100   90  100 1   
   101   91   92 1   
   102   92  101 1   
   103  102  103 1   
   104  102  110 1   
   105  103  104 1   
   106  103  106 1   
   107  103  111 1   
   108  104  105 2   
   109  104  121 1   
   110  106  107 1   
   111  106  108 1   
   112  106  112 1   
   113  107  109 1   
   114  107  113 1   
   115  107  114 1   
   116  108  115 1   
   117  108  116 1   
   118  108  117 1   
   119  109  118 1   
   120  109  119 1   
   121  109  120 1   
   122  121  122 1   
   123  121  127 1   
   124  122  123 1   
   125  122  125 1   
   126  122  128 1   
   127  123  124 2   
   128  123  132 1   
   129  125  126 1   
   130  125  129 1   
   131  125  130 1   
   132  126  131 1   
   133  132  133 1   
   134  132  137 1   
   135  133  134 1   
   136  133  136 1   
   137  133  138 1   
   138  134  135 2   
   139  134  142 1   
   140  136  139 1   
   141  136  140 1   
   142  136  141 1   
   143  142  143 1   
   144  142  147 1   
   145  143  144 1   
   146  143  146 1   
   147  143  148 1   
   148  144  145 2   
   149  144  152 1   
   150  146  149 1   
   151  146  150 1   
   152  146  151 1   
   153  152  153 1   
   154  152  161 1   
   155  153  154 1   
   156  153  156 1   
   157  153  162 1   
   158  154  155 2   
   159  154  167 1   
   160  156  157 1   
   161  156  163 1   
   162  156  164 1   
   163  157  158 1   
   164  157  165 1   
   165  157  166 1   
   166  158  159 1   
   167  158  160 1   
   168  167  168 1   
   169  167  172 1   
   170  168  169 1   
   171  168  170 1   
   172  168  171 1   
   173  174  175 1   
   174  174  176 1   
   175  177  178 1   
   176  177  179 1   
@<TRIPOS>SUBSTRUCTURE
     1 MOL         1 TEMP              0 ****  ****    0 ROOT
