@<TRIPOS>MOLECULE
MOL
  192   187     1     0     0
SMALL
resp


@<TRIPOS>ATOM
      1 C1          9.2740    1.0800    1.7930 c3        1 MOL     -0.418989
      2 C2          8.1440    1.1060    0.7360 c         1 MOL      0.704431
      3 O1          7.2380    1.9430    0.8540 o         1 MOL     -0.600066
      4 H1         10.1050    0.4800    1.4200 hc        1 MOL      0.102335
      5 H2          9.6170    2.0970    1.9830 hc        1 MOL      0.102335
      6 H3          8.8980    0.6440    2.7170 hc        1 MOL      0.102335
      7 N1          8.2260    0.1530   -0.2130 n         1 MOL     -0.434142
      8 C3          7.3330   -0.2110   -1.3100 c3        1 MOL     -0.031276
      9 C4          6.7840   -1.6510   -1.2880 c         1 MOL      0.462971
     10 O2          6.3510   -2.2020   -2.2830 o         1 MOL     -0.396626
     11 C5          7.9530    0.2180   -2.6990 c3        1 MOL     -0.316642
     12 C6          9.3840   -0.4260   -2.7380 c         1 MOL      0.797426
     13 O3          9.5880   -1.6060   -3.0490 o         1 MOL     -0.670037
     14 O4         10.3590    0.3790   -2.5900 o         1 MOL     -0.670037
     15 H4          8.9040   -0.5750   -0.0020 hn        1 MOL      0.228062
     16 H5          6.4500    0.4090   -1.1370 h1        1 MOL      0.193893
     17 H6          7.9570    1.3080   -2.7390 hc        1 MOL      0.096059
     18 H7          7.4260   -0.2440   -3.5310 hc        1 MOL      0.096059
     19 N2          6.6790   -2.2140   -0.0710 n         1 MOL     -0.322393
     20 C7          6.2250   -3.5950    0.2100 c3        1 MOL      0.023919
     21 C8          4.8100   -3.9030   -0.3600 c         1 MOL      0.468986
     22 O5          4.6280   -4.9290   -0.9990 o         1 MOL     -0.522496
     23 C9          6.4530   -3.9800    1.6430 c3        1 MOL      0.131996
     24 C10         7.9480   -4.0260    2.0060 c3        1 MOL     -0.220420
     25 C11         8.2190   -4.6390    3.4650 c3        1 MOL      0.140106
     26 C12         9.7010   -4.4110    3.7200 c3        1 MOL      0.020183
     27 N3          9.9630   -4.8990    5.0900 n4        1 MOL     -0.098433
     28 H8          7.0770   -1.7840    0.7510 hn        1 MOL      0.181508
     29 H9          6.8570   -4.2480   -0.4070 h1        1 MOL      0.071891
     30 H10         5.9320   -4.8910    1.9220 hc        1 MOL     -0.014648
     31 H11         5.9710   -3.1520    2.1510 hc        1 MOL     -0.014648
     32 H12         8.3100   -3.0010    2.1180 hc        1 MOL      0.074170
     33 H13         8.5000   -4.7300    1.3820 hc        1 MOL      0.074170
     34 H14         8.0540   -5.7080    3.5410 hc        1 MOL     -0.009990
     35 H15         7.5670   -4.1680    4.2130 hc        1 MOL     -0.009990
     36 H16         9.8660   -3.3310    3.6440 hx        1 MOL      0.062047
     37 H17        10.2740   -4.9520    2.9750 hx        1 MOL      0.062047
     38 H18         9.0930   -4.9280    5.6060 hn        1 MOL      0.190981
     39 H19        10.1180   -5.8910    5.0670 hn        1 MOL      0.190981
     40 H20        10.7570   -4.4300    5.5170 hn        1 MOL      0.190981
     41 N4          3.7830   -3.0250   -0.1970 n         1 MOL     -0.381467
     42 C13         3.6500   -1.7370    0.5290 c3        1 MOL     -0.055208
     43 C14         3.8070   -0.4760   -0.3110 c         1 MOL      0.119075
     44 O6          3.6610   -0.5480   -1.5420 o         1 MOL     -0.365699
     45 C15         2.3530   -1.6920    1.3320 c3        1 MOL     -0.129546
     46 C16         1.0730   -2.2140    0.6780 c         1 MOL      0.673154
     47 O7          0.8070   -1.6800   -0.4540 o         1 MOL     -0.682880
     48 O8          0.2200   -2.8350    1.3230 o         1 MOL     -0.682880
     49 H21         3.0180   -3.2550   -0.7990 hn        1 MOL      0.347384
     50 H22         4.4650   -1.6880    1.2540 h1        1 MOL      0.113411
     51 H23         2.2220   -0.6520    1.6330 hc        1 MOL      0.046791
     52 H24         2.5140   -2.2510    2.2630 hc        1 MOL      0.046791
     53 N5          4.0670    0.7000    0.2990 n         1 MOL     -0.430332
     54 C17         4.0870    2.0950   -0.2920 c3        1 MOL      0.028789
     55 C18         2.7930    2.5900   -1.0210 c         1 MOL      0.677964
     56 O9          1.7410    1.9490   -0.9510 o         1 MOL     -0.546368
     57 H25         4.2080    0.7270    1.3030 hn        1 MOL      0.295234
     58 H26         4.9200    2.1610   -0.9910 h1        1 MOL      0.076386
     59 H27         4.3410    2.7910    0.5000 h1        1 MOL      0.076386
     60 N6          2.8360    3.8250   -1.6120 n         1 MOL     -0.746711
     61 C19         1.7160    4.6380   -2.2780 c3        1 MOL      0.558225
     62 C20         2.0450    6.0820   -2.3350 c         1 MOL      0.375126
     63 O10         3.1570    6.4780   -2.1980 o         1 MOL     -0.488936
     64 C21         1.2800    4.1100   -3.6760 c3        1 MOL     -0.299046
     65 C22         0.8700    2.6680   -3.5710 c         1 MOL      0.720063
     66 O11         1.3880    1.8250   -4.3280 o         1 MOL     -0.667817
     67 O12        -0.1700    2.4480   -2.8860 o         1 MOL     -0.667817
     68 H28         3.7060    4.3260   -1.5060 hn        1 MOL      0.312879
     69 H29         0.8860    4.4100   -1.6090 h1        1 MOL     -0.032406
     70 H30         2.1500    4.2620   -4.3100 hc        1 MOL      0.060728
     71 H31         0.5500    4.7490   -4.1730 hc        1 MOL      0.060728
     72 N7          1.0180    6.9000   -2.6490 n         1 MOL     -0.459237
     73 C23        -0.4120    6.7640   -2.5790 c3        1 MOL     -0.088228
     74 C24        -0.9390    6.2400   -1.2830 c         1 MOL      0.625721
     75 O13        -0.5660    6.7540   -0.2260 o         1 MOL     -0.529780
     76 H32         1.3140    7.8640   -2.6760 hn        1 MOL      0.318471
     77 H33        -0.7060    6.0290   -3.3390 h1        1 MOL      0.085276
     78 H34        -0.9430    7.6990   -2.7200 h1        1 MOL      0.085276
     79 N8         -1.8630    5.2150   -1.2750 n         1 MOL     -0.593675
     80 C25        -2.4280    4.6350   -0.0560 c3        1 MOL     -0.041638
     81 C26        -1.3730    3.6350    0.5210 c         1 MOL      0.688622
     82 O14        -0.8670    2.7640   -0.1840 o         1 MOL     -0.547297
     83 C27        -3.7100    3.8050   -0.3690 c3        1 MOL      0.583587
     84 C28        -4.7510    4.6410   -1.0050 c3        1 MOL     -0.587471
     85 O15        -4.2430    3.2120    0.8020 oh        1 MOL     -0.788834
     86 H35        -2.1400    4.8130   -2.1560 hn        1 MOL      0.282009
     87 H36        -2.7240    5.4090    0.6600 h1        1 MOL      0.091018
     88 H37        -3.5540    2.9900   -1.0650 h1        1 MOL     -0.016235
     89 H38        -4.9190    3.8050    1.1300 ho        1 MOL      0.430143
     90 H39        -4.3820    4.7100   -2.0240 hc        1 MOL      0.155303
     91 H40        -5.6700    4.0690   -1.1270 hc        1 MOL      0.155303
     92 H41        -4.8360    5.5410   -0.4040 hc        1 MOL      0.155303
     93 N9         -1.2000    3.6560    1.8860 n         1 MOL     -0.750008
     94 C29        -0.3900    2.7440    2.6430 c3        1 MOL      0.595840
     95 C30        -0.7420    1.3040    2.3080 c         1 MOL      0.124344
     96 O16        -0.1160    0.6850    1.4290 o         1 MOL     -0.436963
     97 C31         1.1700    3.0040    2.4470 c3        1 MOL      0.028819
     98 C32         1.5510    4.4950    2.7890 c3        1 MOL     -0.105632
     99 C33         1.9150    2.1060    3.4230 c3        1 MOL     -0.044173
    100 C34         1.2070    5.0390    4.1400 c3        1 MOL     -0.221312
    101 H42        -1.6310    4.4060    2.4110 hn        1 MOL      0.307667
    102 H43        -0.6020    2.8600    3.7040 h1        1 MOL     -0.039524
    103 H44         1.4530    2.8200    1.4120 hc        1 MOL     -0.043385
    104 H45         1.0230    5.1750    2.1130 hc        1 MOL      0.073863
    105 H46         2.6040    4.6350    2.5610 hc        1 MOL      0.073863
    106 H47         2.9470    2.2890    3.7120 hc        1 MOL      0.014359
    107 H48         1.3960    2.1910    4.3790 hc        1 MOL      0.014359
    108 H49         1.8870    1.0640    3.1290 hc        1 MOL      0.014359
    109 H50         1.8690    4.6270    4.9020 hc        1 MOL      0.050156
    110 H51         1.3520    6.1180    4.0630 hc        1 MOL      0.050156
    111 H52         0.1740    4.8330    4.4340 hc        1 MOL      0.050156
    112 N10        -1.7070    0.7440    2.9970 n         1 MOL     -0.165385
    113 C35        -2.1650   -0.6580    2.9480 c3        1 MOL     -0.127756
    114 C36        -3.6640   -0.8340    3.0300 c         1 MOL      0.278802
    115 O17        -4.1660   -1.9760    2.9930 o         1 MOL     -0.503506
    116 C37        -1.5130   -1.5280    4.0800 c3        1 MOL      0.560980
    117 C38        -1.3290   -0.8460    5.4230 c3        1 MOL     -0.122892
    118 O18        -0.1720   -1.8680    3.7980 oh        1 MOL     -0.687943
    119 H53        -2.1390    1.1520    3.8140 hn        1 MOL      0.179896
    120 H54        -1.9100   -1.0980    1.9900 h1        1 MOL      0.122154
    121 H55        -2.0430   -2.4630    4.2900 h1        1 MOL     -0.030468
    122 H56        -0.0900   -2.1470    2.8860 ho        1 MOL      0.406373
    123 H57        -1.0720   -1.5950    6.1780 hc        1 MOL      0.005463
    124 H58        -0.6100   -0.0290    5.3540 hc        1 MOL      0.005463
    125 H59        -2.2910   -0.4480    5.7490 hc        1 MOL      0.005463
    126 N11        -4.4880    0.2380    2.8940 n         1 MOL     -0.053053
    127 C39        -5.9580    0.2070    2.8860 c3        1 MOL     -0.243703
    128 C40        -6.4860   -0.1820    1.4980 c         1 MOL      0.555692
    129 O19        -6.7990    0.5560    0.5810 o         1 MOL     -0.517821
    130 C41        -6.5390    1.5110    3.4920 c3        1 MOL      0.450884
    131 C42        -8.0410    1.4070    3.6090 c3        1 MOL     -0.613456
    132 O20        -5.9680    1.8870    4.6820 oh        1 MOL     -0.669891
    133 H60        -4.0810    1.1540    2.8730 hn        1 MOL      0.217714
    134 H61        -6.2290   -0.5830    3.5930 h1        1 MOL      0.120326
    135 H62        -6.3090    2.3420    2.8210 h1        1 MOL     -0.004070
    136 H63        -6.5860    2.4130    5.2060 ho        1 MOL      0.430787
    137 H64        -8.4570    1.0590    2.6600 hc        1 MOL      0.157875
    138 H65        -8.4080    0.8260    4.4510 hc        1 MOL      0.157875
    139 H66        -8.4000    2.4170    3.8070 hc        1 MOL      0.157875
    140 N12        -6.5840   -1.5300    1.4330 n         1 MOL     -0.460688
    141 C43        -6.5390   -2.3100    0.2210 c3        1 MOL      0.249831
    142 C44        -5.2160   -2.2090   -0.5110 c         1 MOL      0.577628
    143 O21        -4.4030   -1.3120   -0.3020 o         1 MOL     -0.531595
    144 C45        -7.7850   -2.0770   -0.7010 c3        1 MOL     -0.440154
    145 C46        -9.1070   -2.1980    0.0220 c3        1 MOL      0.412540
    146 C47       -10.2810   -1.6360   -0.7800 c3        1 MOL     -0.004085
    147 C48       -11.5630   -1.8430   -0.0000 c3        1 MOL     -0.072731
    148 N13       -12.0710   -3.2670   -0.0590 n4        1 MOL     -0.271316
    149 H67        -6.3030   -2.0120    2.2810 hn        1 MOL      0.273353
    150 H68        -6.6410   -3.3190    0.6050 h1        1 MOL      0.034985
    151 H69        -7.7290   -2.9040   -1.4180 hc        1 MOL      0.097466
    152 H70        -7.7620   -1.0710   -1.1170 hc        1 MOL      0.097466
    153 H71        -9.0430   -1.7520    1.0170 hc        1 MOL     -0.105299
    154 H72        -9.3220   -3.2710    0.0570 hc        1 MOL     -0.105299
    155 H73       -10.3360   -2.0330   -1.7880 hc        1 MOL      0.044962
    156 H74       -10.1640   -0.5620   -0.9370 hc        1 MOL      0.044962
    157 H75       -12.3180   -1.1220   -0.3130 hx        1 MOL      0.100388
    158 H76       -11.3970   -1.6120    1.0510 hx        1 MOL      0.100388
    159 H77       -13.0620   -3.3520    0.0870 hn        1 MOL      0.250092
    160 H78       -11.9780   -3.5100   -1.0330 hn        1 MOL      0.250092
    161 H79       -11.5930   -3.8910    0.5730 hn        1 MOL      0.250092
    162 N14        -4.8450   -3.1620   -1.3840 n         1 MOL     -0.676343
    163 C49        -3.6780   -3.1130   -2.2650 c3        1 MOL      0.411764
    164 C50        -2.3350   -2.8500   -1.5940 c         1 MOL      0.190707
    165 O22        -1.5810   -1.9700   -1.9360 o         1 MOL     -0.512775
    166 C51        -3.5120   -4.3620   -3.1730 c3        1 MOL      0.000296
    167 C52        -4.6630   -4.3930   -4.1670 c3        1 MOL     -0.212636
    168 C53        -4.5570   -5.5730   -5.0800 c         1 MOL      0.689070
    169 O23        -4.4470   -5.3620   -6.3150 o         1 MOL     -0.645873
    170 O24        -4.5790   -6.7340   -4.5850 o         1 MOL     -0.645873
    171 H80        -5.5610   -3.8560   -1.5740 hn        1 MOL      0.340954
    172 H81        -3.8290   -2.2450   -2.9060 h1        1 MOL     -0.008268
    173 H82        -3.5520   -5.2210   -2.4970 hc        1 MOL      0.047355
    174 H83        -2.5520   -4.3520   -3.6760 hc        1 MOL      0.047355
    175 H84        -4.5420   -3.5540   -4.8500 hc        1 MOL      0.021247
    176 H85        -5.6720   -4.3310   -3.7600 hc        1 MOL      0.021247
    177 N15        -1.9380   -3.4110   -0.4370 n         1 MOL     -0.143232
    178 C54        -2.4010   -4.7180    0.2100 c3        1 MOL     -0.023727
    179 H86        -1.6350   -5.4820    0.0710 h1        1 MOL      0.024728
    180 H87        -2.5660   -4.5590    1.2750 h1        1 MOL      0.024728
    181 H88        -3.3290   -5.0460   -0.2570 h1        1 MOL      0.024728
    182 H89        -1.1740   -2.9120   -0.0130 hn        1 MOL      0.291511
    183 Ca1        -0.3910    0.4080   -1.2250 Ca        1 MOL      1.768661
    184 O25        -2.6400    0.9300   -2.7370 oh        1 MOL     -0.857363
    185 H90        -2.9090    0.5410   -3.5690 ho        1 MOL      0.413016
    186 H91        -3.4620    1.0590   -2.2610 ho        1 MOL      0.413016
    187 O26         0.0820   -0.6550   -3.6420 oh        1 MOL     -0.857363
    188 H92         0.0320   -1.5410   -4.0070 ho        1 MOL      0.413016
    189 H93         0.6460   -0.1750   -4.2430 ho        1 MOL      0.413016
    190 O27        -2.8410    0.6920    0.1210 oh        1 MOL     -0.857363
    191 H94        -3.4150    1.4500    0.1910 ho        1 MOL      0.413016
    192 H95        -3.4360   -0.0230   -0.1150 ho        1 MOL      0.413016
@<TRIPOS>BOND
     1    1    2 1   
     2    1    4 1   
     3    1    5 1   
     4    1    6 1   
     5    2    3 2   
     6    2    7 1   
     7    7    8 1   
     8    7   15 1   
     9    8    9 1   
    10    8   11 1   
    11    8   16 1   
    12    9   10 2   
    13    9   19 1   
    14   11   12 1   
    15   11   17 1   
    16   11   18 1   
    17   12   13 1   
    18   12   14 1   
    19   19   20 1   
    20   19   28 1   
    21   20   21 1   
    22   20   23 1   
    23   20   29 1   
    24   21   22 2   
    25   21   41 1   
    26   23   24 1   
    27   23   30 1   
    28   23   31 1   
    29   24   25 1   
    30   24   32 1   
    31   24   33 1   
    32   25   26 1   
    33   25   34 1   
    34   25   35 1   
    35   26   27 1   
    36   26   36 1   
    37   26   37 1   
    38   27   38 1   
    39   27   39 1   
    40   27   40 1   
    41   41   42 1   
    42   41   49 1   
    43   42   43 1   
    44   42   45 1   
    45   42   50 1   
    46   43   44 2   
    47   43   53 1   
    48   45   46 1   
    49   45   51 1   
    50   45   52 1   
    51   46   47 1   
    52   46   48 1   
    53   53   54 1   
    54   53   57 1   
    55   54   55 1   
    56   54   58 1   
    57   54   59 1   
    58   55   56 2   
    59   55   60 1   
    60   60   61 1   
    61   60   68 1   
    62   61   62 1   
    63   61   64 1   
    64   61   69 1   
    65   62   63 2   
    66   62   72 1   
    67   64   65 1   
    68   64   70 1   
    69   64   71 1   
    70   65   66 1   
    71   65   67 1   
    72   72   73 1   
    73   72   76 1   
    74   73   74 1   
    75   73   77 1   
    76   73   78 1   
    77   74   75 2   
    78   74   79 1   
    79   79   80 1   
    80   79   86 1   
    81   80   81 1   
    82   80   83 1   
    83   80   87 1   
    84   81   82 2   
    85   81   93 1   
    86   83   84 1   
    87   83   85 1   
    88   83   88 1   
    89   84   90 1   
    90   84   91 1   
    91   84   92 1   
    92   85   89 1   
    93   93   94 1   
    94   93  101 1   
    95   94   95 1   
    96   94   97 1   
    97   94  102 1   
    98   95   96 2   
    99   95  112 1   
   100   97   98 1   
   101   97   99 1   
   102   97  103 1   
   103   98  100 1   
   104   98  104 1   
   105   98  105 1   
   106   99  106 1   
   107   99  107 1   
   108   99  108 1   
   109  100  109 1   
   110  100  110 1   
   111  100  111 1   
   112  112  113 1   
   113  112  119 1   
   114  113  114 1   
   115  113  116 1   
   116  113  120 1   
   117  114  115 2   
   118  114  126 1   
   119  116  117 1   
   120  116  118 1   
   121  116  121 1   
   122  117  123 1   
   123  117  124 1   
   124  117  125 1   
   125  118  122 1   
   126  126  127 1   
   127  126  133 1   
   128  127  128 1   
   129  127  130 1   
   130  127  134 1   
   131  128  129 2   
   132  128  140 1   
   133  130  131 1   
   134  130  132 1   
   135  130  135 1   
   136  131  137 1   
   137  131  138 1   
   138  131  139 1   
   139  132  136 1   
   140  140  141 1   
   141  140  149 1   
   142  141  142 1   
   143  141  144 1   
   144  141  150 1   
   145  142  143 2   
   146  142  162 1   
   147  144  145 1   
   148  144  151 1   
   149  144  152 1   
   150  145  146 1   
   151  145  153 1   
   152  145  154 1   
   153  146  147 1   
   154  146  155 1   
   155  146  156 1   
   156  147  148 1   
   157  147  157 1   
   158  147  158 1   
   159  148  159 1   
   160  148  160 1   
   161  148  161 1   
   162  162  163 1   
   163  162  171 1   
   164  163  164 1   
   165  163  166 1   
   166  163  172 1   
   167  164  165 2   
   168  164  177 1   
   169  166  167 1   
   170  166  173 1   
   171  166  174 1   
   172  167  168 1   
   173  167  175 1   
   174  167  176 1   
   175  168  169 1   
   176  168  170 1   
   177  177  178 1   
   178  177  182 1   
   179  178  179 1   
   180  178  180 1   
   181  178  181 1   
   182  184  185 1   
   183  184  186 1   
   184  187  188 1   
   185  187  189 1   
   186  190  191 1   
   187  190  192 1   
@<TRIPOS>SUBSTRUCTURE
     1 MOL         1 TEMP              0 ****  ****    0 ROOT
