@<TRIPOS>MOLECULE
MOL
  189   185     1     0     0
SMALL
resp


@<TRIPOS>ATOM
      1 C1          9.1080    2.3790    0.8470 c3        1 MOL     -0.575556
      2 C2          8.0780    1.3940    0.3200 c         1 MOL      0.723958
      3 O1          7.1950    1.0170    1.0490 o         1 MOL     -0.619652
      4 H1          9.6750    1.9140    1.6530 hc        1 MOL      0.150392
      5 H2          9.7860    2.6610    0.0420 hc        1 MOL      0.150392
      6 H3          8.6020    3.2670    1.2250 hc        1 MOL      0.150392
      7 N1          8.1580    1.0180   -0.9920 n         1 MOL     -0.438260
      8 C3          7.0350    0.3720   -1.6540 c3        1 MOL      0.021964
      9 C4          6.8380   -1.0950   -1.1440 c         1 MOL      0.525737
     10 O2          6.8340   -1.9790   -1.9990 o         1 MOL     -0.412358
     11 C5          7.1140    0.4830   -3.1970 c3        1 MOL     -0.083254
     12 C6          8.4280   -0.0060   -3.8360 c         1 MOL      0.641326
     13 O3          9.4900    0.7140   -3.7700 o         1 MOL     -0.615015
     14 O4          8.4170   -1.1340   -4.4500 o         1 MOL     -0.615015
     15 H4          8.9330    1.2870   -1.5800 hn        1 MOL      0.210403
     16 H5          6.1500    0.8830   -1.2650 h1        1 MOL      0.049693
     17 H6          7.0190    1.5320   -3.4860 hc        1 MOL      0.037275
     18 H7          6.2690   -0.0520   -3.6360 hc        1 MOL      0.037275
     19 N2          6.7320   -1.4020    0.1420 n         1 MOL     -0.562960
     20 C7          6.6520   -2.8190    0.6350 c3        1 MOL      0.155327
     21 C8          5.2840   -3.4270    0.4980 c         1 MOL      0.412866
     22 O5          5.2410   -4.5090    0.0320 o         1 MOL     -0.499544
     23 C9          7.1300   -2.8520    2.1130 c3        1 MOL     -0.057238
     24 C10         8.6140   -2.3400    2.1290 c3        1 MOL     -0.004138
     25 C11         9.4630   -2.7700    3.3200 c3        1 MOL     -0.039673
     26 C12        10.8850   -2.1580    3.3660 c3        1 MOL     -0.044958
     27 N3         11.4800   -2.5800    4.6080 n4        1 MOL     -0.121406
     28 H8          6.8680   -0.6910    0.8550 hn        1 MOL      0.328319
     29 H9          7.3370   -3.4610    0.0700 h1        1 MOL      0.075433
     30 H10         6.9570   -3.7920    2.6380 hc        1 MOL      0.016965
     31 H11         6.6960   -2.0220    2.6580 hc        1 MOL      0.016965
     32 H12         8.6050   -1.2480    2.0680 hc        1 MOL      0.018505
     33 H13         9.0740   -2.6300    1.1840 hc        1 MOL      0.018505
     34 H14         9.5740   -3.8600    3.3590 hc        1 MOL      0.033272
     35 H15         8.9160   -2.6090    4.2450 hc        1 MOL      0.033272
     36 H16        10.8430   -1.0750    3.2820 hx        1 MOL      0.097712
     37 H17        11.3190   -2.5380    2.4430 hx        1 MOL      0.097712
     38 H18        12.3730   -2.1720    4.8240 hn        1 MOL      0.228610
     39 H19        10.8560   -2.4220    5.3860 hn        1 MOL      0.228610
     40 H20        11.5370   -3.5980    4.6260 hn        1 MOL      0.228610
     41 N4          4.1920   -2.6730    0.6920 n         1 MOL     -0.322570
     42 C13         4.0000   -1.2610    1.0020 c3        1 MOL      0.022771
     43 C14         3.8270   -0.3450   -0.1660 c         1 MOL      0.555818
     44 O6          3.7080   -0.8090   -1.2720 o         1 MOL     -0.479613
     45 C15         2.8150   -1.2040    1.9700 c3        1 MOL     -0.115090
     46 C16         1.4460   -1.6550    1.3630 c         1 MOL      0.659984
     47 O7          0.8140   -0.8740    0.5920 o         1 MOL     -0.661515
     48 O8          1.2290   -2.8690    1.4390 o         1 MOL     -0.661515
     49 H21         3.3050   -3.1610    0.6080 hn        1 MOL      0.305578
     50 H22         4.8220   -0.8490    1.5840 h1        1 MOL      0.074159
     51 H23         2.6880   -0.2160    2.4290 hc        1 MOL     -0.012038
     52 H24         3.0740   -1.9910    2.6880 hc        1 MOL     -0.012038
     53 N5          3.8410    1.0020    0.0650 n         1 MOL     -0.609401
     54 C17         3.7450    2.0280   -0.9770 c3        1 MOL      0.187740
     55 C18         2.3120    2.4880   -1.2800 c         1 MOL      0.261875
     56 O9          1.3060    2.0750   -0.6480 o         1 MOL     -0.367610
     57 H25         3.8560    1.4130    0.9900 hn        1 MOL      0.338148
     58 H26         4.0720    1.5000   -1.8750 h1        1 MOL      0.041899
     59 H27         4.3250    2.9390   -0.8360 h1        1 MOL      0.041899
     60 N6          2.1630    3.3390   -2.3090 n         1 MOL     -0.320808
     61 C19         0.9480    4.0880   -2.7930 c3        1 MOL      0.220909
     62 C20         1.2810    5.6020   -2.8550 c         1 MOL      0.444813
     63 O10         2.3750    6.0590   -3.0780 o         1 MOL     -0.516290
     64 C21         0.4060    3.5120   -4.0970 c3        1 MOL     -0.186257
     65 C22        -0.0030    2.0280   -3.9940 c         1 MOL      0.634245
     66 O11        -0.6370    1.6220   -3.0190 o         1 MOL     -0.659578
     67 O12         0.6390    1.2190   -4.6450 o         1 MOL     -0.659578
     68 H28         3.0340    3.5860   -2.7720 hn        1 MOL      0.234589
     69 H29         0.2430    3.9200   -1.9710 h1        1 MOL      0.031489
     70 H30         1.0020    3.7620   -4.9740 hc        1 MOL      0.049601
     71 H31        -0.5240    4.0240   -4.3570 hc        1 MOL      0.049601
     72 N7          0.3270    6.5540   -2.8450 n         1 MOL     -0.429934
     73 C23        -1.1850    6.3470   -2.6830 c3        1 MOL     -0.134712
     74 C24        -1.6950    5.9720   -1.2810 c         1 MOL      0.631401
     75 O13        -1.1230    6.3860   -0.2230 o         1 MOL     -0.543117
     76 H32         0.6710    7.4780   -2.6370 hn        1 MOL      0.323988
     77 H33        -1.5900    5.6800   -3.4400 h1        1 MOL      0.088380
     78 H34        -1.6500    7.2950   -2.9480 h1        1 MOL      0.088380
     79 N8         -2.7510    5.1870   -1.2550 n         1 MOL     -0.604907
     80 C25        -3.2730    4.6630    0.0130 c3        1 MOL      0.045518
     81 C26        -2.3120    3.6200    0.6140 c         1 MOL      0.924118
     82 O14        -1.6810    2.8230   -0.1050 o         1 MOL     -0.778311
     83 C27        -4.6590    4.0430   -0.1640 c3        1 MOL      0.516411
     84 C28        -5.6830    5.2040   -0.5170 c3        1 MOL     -0.375505
     85 O15        -5.0560    3.4170    1.0110 oh        1 MOL     -0.704017
     86 H35        -3.0430    4.7830   -2.1330 hn        1 MOL      0.311754
     87 H36        -3.2800    5.4560    0.7570 h1        1 MOL      0.053714
     88 H37        -4.5820    3.2140   -0.8730 h1        1 MOL     -0.093669
     89 H38        -5.6370    2.6670    0.8390 ho        1 MOL      0.395503
     90 H39        -5.4020    5.8090   -1.3700 hc        1 MOL      0.095392
     91 H40        -6.6440    4.7080   -0.7080 hc        1 MOL      0.095392
     92 H41        -5.8000    5.8370    0.3680 hc        1 MOL      0.095392
     93 N9         -2.1410    3.6230    1.9510 n         1 MOL     -0.691685
     94 C29        -1.3230    2.6920    2.7060 c3        1 MOL      0.022334
     95 C30        -1.6110    1.1540    2.6740 c         1 MOL      0.717349
     96 O16        -1.4800    0.4600    1.6330 o         1 MOL     -0.667276
     97 C31         0.1520    2.9700    2.4840 c3        1 MOL      0.502810
     98 C32         0.5370    4.4750    2.4470 c3        1 MOL     -0.148876
     99 C33         0.9910    2.1810    3.5190 c3        1 MOL     -0.530955
    100 C34         0.1260    5.2970    3.6790 c3        1 MOL     -0.159003
    101 H42        -2.4060    4.4330    2.4920 hn        1 MOL      0.331196
    102 H43        -1.3260    2.9890    3.7530 h1        1 MOL      0.016009
    103 H44         0.3160    2.5220    1.5050 hc        1 MOL     -0.232052
    104 H45         0.0620    4.9650    1.5980 hc        1 MOL      0.071369
    105 H46         1.6320    4.4600    2.4150 hc        1 MOL      0.071369
    106 H47         0.8320    2.4850    4.5530 hc        1 MOL      0.119943
    107 H48         0.8290    1.1080    3.4040 hc        1 MOL      0.119943
    108 H49         2.0490    2.3230    3.3070 hc        1 MOL      0.119943
    109 H50         0.1820    6.3750    3.4770 hc        1 MOL      0.040245
    110 H51        -0.8530    5.0470    4.0900 hc        1 MOL      0.040245
    111 H52         0.8140    5.1560    4.5000 hc        1 MOL      0.040245
    112 N10        -1.8640    0.6240    3.8120 n         1 MOL     -0.555668
    113 C35        -2.0590   -0.8480    3.9770 c3        1 MOL     -0.035032
    114 C36        -3.4100   -1.4970    3.5910 c         1 MOL      0.434787
    115 O17        -3.5910   -2.7120    3.7620 o         1 MOL     -0.512292
    116 C37        -1.8330   -1.2410    5.4180 c3        1 MOL      0.341979
    117 C38        -2.9260   -0.7760    6.4310 c3        1 MOL     -0.115743
    118 O18        -0.6490   -0.6160    5.9070 oh        1 MOL     -0.616561
    119 H53        -1.9950    1.2170    4.6290 hn        1 MOL      0.339736
    120 H54        -1.3120   -1.3220    3.3410 h1        1 MOL      0.118751
    121 H55        -1.8760   -2.3290    5.4860 h1        1 MOL      0.011834
    122 H56         0.0880   -1.2260    5.7800 ho        1 MOL      0.392309
    123 H57        -2.6440   -0.8910    7.4720 hc        1 MOL      0.034249
    124 H58        -3.1140    0.2670    6.1600 hc        1 MOL      0.034249
    125 H59        -3.8480   -1.3430    6.3090 hc        1 MOL      0.034249
    126 N11        -4.3660   -0.7070    3.0640 n         1 MOL     -0.145847
    127 C39        -5.5940   -1.2240    2.4730 c3        1 MOL      0.013974
    128 C40        -5.5050   -1.3870    0.9130 c         1 MOL      0.472600
    129 O19        -4.6950   -0.7300    0.2330 o         1 MOL     -0.462923
    130 C41        -6.7310   -0.3260    2.9150 c3        1 MOL      0.255954
    131 C42        -6.9670   -0.3920    4.4750 c3        1 MOL     -0.107150
    132 O20        -6.4110    1.1000    2.7320 oh        1 MOL     -0.540863
    133 H60        -4.1100    0.2380    2.8450 hn        1 MOL      0.149223
    134 H61        -5.7570   -2.2180    2.8870 h1        1 MOL      0.063322
    135 H62        -7.5540   -0.5800    2.2480 h1        1 MOL     -0.055920
    136 H63        -6.6430    1.2390    1.8080 ho        1 MOL      0.344673
    137 H64        -7.9780   -0.1620    4.8130 hc        1 MOL      0.034269
    138 H65        -6.9110   -1.4690    4.6520 hc        1 MOL      0.034269
    139 H66        -6.1670    0.0570    5.0600 hc        1 MOL      0.034269
    140 N12        -6.3070   -2.3200    0.4310 n         1 MOL     -0.558157
    141 C43        -6.3930   -2.5880   -1.0190 c3        1 MOL      0.171167
    142 C44        -5.0420   -2.7590   -1.7860 c         1 MOL      0.498881
    143 O21        -4.8160   -2.0260   -2.7880 o         1 MOL     -0.511035
    144 C45        -7.2860   -1.6060   -1.8370 c3        1 MOL     -0.662849
    145 C46        -8.4970   -1.3210   -0.8660 c3        1 MOL      0.211580
    146 C47        -9.8380   -0.8050   -1.5510 c3        1 MOL      0.004108
    147 C48       -10.8890   -0.6510   -0.4980 c3        1 MOL      0.016298
    148 N13       -12.1860   -0.3600   -1.0830 n4        1 MOL     -0.027281
    149 H67        -6.8230   -2.8470    1.1300 hn        1 MOL      0.330376
    150 H68        -6.8190   -3.5810   -1.1310 h1        1 MOL      0.058674
    151 H69        -7.6230   -2.1100   -2.7320 hc        1 MOL      0.222120
    152 H70        -6.7430   -0.6930   -2.0900 hc        1 MOL      0.222120
    153 H71        -8.1020   -0.6520   -0.1060 hc        1 MOL      0.004559
    154 H72        -8.6960   -2.2000   -0.2460 hc        1 MOL      0.004559
    155 H73       -10.1890   -1.4980   -2.3200 hc        1 MOL      0.018418
    156 H74        -9.5430    0.1750   -1.9250 hc        1 MOL      0.018418
    157 H75       -10.4450    0.0870    0.1650 hx        1 MOL      0.036530
    158 H76       -10.9110   -1.6140    0.0060 hx        1 MOL      0.036530
    159 H77       -12.1110    0.2990   -1.8480 hn        1 MOL      0.150714
    160 H78       -12.6540   -1.1780   -1.4330 hn        1 MOL      0.150714
    161 H79       -12.8380    0.0200   -0.4210 hn        1 MOL      0.150714
    162 N14        -4.1930   -3.7080   -1.3440 n         1 MOL     -0.474627
    163 C49        -2.8540   -3.9160   -2.0290 c3        1 MOL      0.337255
    164 C50        -1.7080   -3.2520   -1.2000 c         1 MOL      0.372570
    165 O22        -1.3450   -2.0760   -1.5330 o         1 MOL     -0.585261
    166 C51        -2.6580   -5.3900   -2.4600 c3        1 MOL     -0.017760
    167 C52        -3.5580   -5.7710   -3.6850 c3        1 MOL     -0.245660
    168 C53        -3.1720   -7.1200   -4.2570 c         1 MOL      0.707180
    169 O23        -4.0400   -8.0660   -4.1430 o         1 MOL     -0.630475
    170 O24        -2.0610   -7.2660   -4.7710 o         1 MOL     -0.630475
    171 H80        -4.6070   -4.4410   -0.7850 hn        1 MOL      0.286785
    172 H81        -2.7690   -3.2690   -2.9070 h1        1 MOL      0.047579
    173 H82        -2.8040   -6.1540   -1.6940 hc        1 MOL      0.035688
    174 H83        -1.6210   -5.5190   -2.7430 hc        1 MOL      0.035688
    175 H84        -3.5280   -5.0510   -4.4980 hc        1 MOL      0.032922
    176 H85        -4.5590   -5.6460   -3.2740 hc        1 MOL      0.032922
    177 N15        -1.1940   -3.8460   -0.0850 n         1 MOL     -0.377155
    178 C54        -1.5700   -5.0890    0.6140 c3        1 MOL      0.036087
    179 H86        -1.7380   -4.8760    1.6690 h1        1 MOL      0.027034
    180 H87        -2.4830   -5.4910    0.1750 h1        1 MOL      0.027034
    181 H88        -0.7670   -5.8200    0.5140 h1        1 MOL      0.027034
    182 H89        -0.4400   -3.2990    0.3110 hn        1 MOL      0.338758
    183 Ca1        -0.7270    0.4300   -0.8880 Ca        1 MOL      1.788262
    184 O25        -3.2590    0.6360   -1.4800 oh        1 MOL     -0.925447
    185 H90        -3.8850    0.2470   -0.8790 ho        1 MOL      0.444912
    186 H91        -3.7990    0.9840   -2.1980 ho        1 MOL      0.444912
    187 O26         1.1020   -0.4920   -2.6690 oh        1 MOL     -0.925447
    188 H92         1.2030   -0.1730   -3.5660 ho        1 MOL      0.444912
    189 H93         2.0010   -0.6730   -2.3730 ho        1 MOL      0.444912
@<TRIPOS>BOND
     1    1    2 1   
     2    1    4 1   
     3    1    5 1   
     4    1    6 1   
     5    2    3 2   
     6    2    7 1   
     7    7    8 1   
     8    7   15 1   
     9    8    9 1   
    10    8   11 1   
    11    8   16 1   
    12    9   10 2   
    13    9   19 1   
    14   11   12 1   
    15   11   17 1   
    16   11   18 1   
    17   12   13 1   
    18   12   14 1   
    19   19   20 1   
    20   19   28 1   
    21   20   21 1   
    22   20   23 1   
    23   20   29 1   
    24   21   22 2   
    25   21   41 1   
    26   23   24 1   
    27   23   30 1   
    28   23   31 1   
    29   24   25 1   
    30   24   32 1   
    31   24   33 1   
    32   25   26 1   
    33   25   34 1   
    34   25   35 1   
    35   26   27 1   
    36   26   36 1   
    37   26   37 1   
    38   27   38 1   
    39   27   39 1   
    40   27   40 1   
    41   41   42 1   
    42   41   49 1   
    43   42   43 1   
    44   42   45 1   
    45   42   50 1   
    46   43   44 2   
    47   43   53 1   
    48   45   46 1   
    49   45   51 1   
    50   45   52 1   
    51   46   47 1   
    52   46   48 1   
    53   53   54 1   
    54   53   57 1   
    55   54   55 1   
    56   54   58 1   
    57   54   59 1   
    58   55   56 2   
    59   55   60 1   
    60   60   61 1   
    61   60   68 1   
    62   61   62 1   
    63   61   64 1   
    64   61   69 1   
    65   62   63 2   
    66   62   72 1   
    67   64   65 1   
    68   64   70 1   
    69   64   71 1   
    70   65   66 1   
    71   65   67 1   
    72   72   73 1   
    73   72   76 1   
    74   73   74 1   
    75   73   77 1   
    76   73   78 1   
    77   74   75 2   
    78   74   79 1   
    79   79   80 1   
    80   79   86 1   
    81   80   81 1   
    82   80   83 1   
    83   80   87 1   
    84   81   82 2   
    85   81   93 1   
    86   83   84 1   
    87   83   85 1   
    88   83   88 1   
    89   84   90 1   
    90   84   91 1   
    91   84   92 1   
    92   85   89 1   
    93   93   94 1   
    94   93  101 1   
    95   94   95 1   
    96   94   97 1   
    97   94  102 1   
    98   95   96 2   
    99   95  112 1   
   100   97   98 1   
   101   97   99 1   
   102   97  103 1   
   103   98  100 1   
   104   98  104 1   
   105   98  105 1   
   106   99  106 1   
   107   99  107 1   
   108   99  108 1   
   109  100  109 1   
   110  100  110 1   
   111  100  111 1   
   112  112  113 1   
   113  112  119 1   
   114  113  114 1   
   115  113  116 1   
   116  113  120 1   
   117  114  115 2   
   118  114  126 1   
   119  116  117 1   
   120  116  118 1   
   121  116  121 1   
   122  117  123 1   
   123  117  124 1   
   124  117  125 1   
   125  118  122 1   
   126  126  127 1   
   127  126  133 1   
   128  127  128 1   
   129  127  130 1   
   130  127  134 1   
   131  128  129 2   
   132  128  140 1   
   133  130  131 1   
   134  130  132 1   
   135  130  135 1   
   136  131  137 1   
   137  131  138 1   
   138  131  139 1   
   139  132  136 1   
   140  140  141 1   
   141  140  149 1   
   142  141  142 1   
   143  141  144 1   
   144  141  150 1   
   145  142  143 2   
   146  142  162 1   
   147  144  145 1   
   148  144  151 1   
   149  144  152 1   
   150  145  146 1   
   151  145  153 1   
   152  145  154 1   
   153  146  147 1   
   154  146  155 1   
   155  146  156 1   
   156  147  148 1   
   157  147  157 1   
   158  147  158 1   
   159  148  159 1   
   160  148  160 1   
   161  148  161 1   
   162  162  163 1   
   163  162  171 1   
   164  163  164 1   
   165  163  166 1   
   166  163  172 1   
   167  164  165 2   
   168  164  177 1   
   169  166  167 1   
   170  166  173 1   
   171  166  174 1   
   172  167  168 1   
   173  167  175 1   
   174  167  176 1   
   175  168  169 1   
   176  168  170 1   
   177  177  178 1   
   178  177  182 1   
   179  178  179 1   
   180  178  180 1   
   181  178  181 1   
   182  184  185 1   
   183  184  186 1   
   184  187  188 1   
   185  187  189 1   
@<TRIPOS>SUBSTRUCTURE
     1 MOL         1 TEMP              0 ****  ****    0 ROOT
