@<TRIPOS>MOLECULE
MOL
  188   182     1     0     0
SMALL
resp


@<TRIPOS>ATOM
      1 C1         -6.4360    3.8580   -2.4070 c3        1 MOL     -0.421958
      2 C2         -7.0400    2.8180   -1.4270 c         1 MOL      0.644246
      3 O1         -6.3550    2.0270   -0.7530 o         1 MOL     -0.527921
      4 H1         -7.0800    3.9490   -3.2820 hc        1 MOL      0.112715
      5 H2         -6.3580    4.8250   -1.9110 hc        1 MOL      0.112715
      6 H3         -5.4450    3.5290   -2.7210 hc        1 MOL      0.112715
      7 N1         -8.3920    2.7980   -1.3610 n         1 MOL     -0.642120
      8 C3         -9.3720    2.1150   -0.4880 c3        1 MOL      0.273924
      9 C4         -9.1910    0.5590   -0.2750 c         1 MOL      0.412219
     10 O2         -9.4940    0.0600    0.7790 o         1 MOL     -0.479167
     11 C5         -9.5920    2.8500    0.8590 c3        1 MOL     -0.293785
     12 C6        -10.7910    2.4810    1.6380 c         1 MOL      0.727071
     13 O3        -10.9010    2.6520    2.9070 o         1 MOL     -0.693178
     14 O4        -11.8590    2.2670    0.9820 o         1 MOL     -0.693178
     15 H4         -8.7770    3.5520   -1.9040 hn        1 MOL      0.337888
     16 H5        -10.2550    2.2540   -1.1190 h1        1 MOL     -0.000628
     17 H6         -9.8980    3.8690    0.6050 hc        1 MOL      0.088859
     18 H7         -8.7230    2.8550    1.5080 hc        1 MOL      0.088859
     19 N2         -8.6180   -0.1560   -1.2200 n         1 MOL     -0.341662
     20 C7         -8.5310   -1.6610   -1.2570 c3        1 MOL      0.127834
     21 C8         -7.1200   -2.1720   -1.3630 c         1 MOL      0.608020
     22 O5         -6.9370   -3.3710   -1.4810 o         1 MOL     -0.569026
     23 C9         -9.4980   -2.1190   -2.4010 c3        1 MOL     -0.121873
     24 C10       -10.9760   -1.9950   -2.1990 c3        1 MOL      0.013413
     25 C11       -11.4290   -2.6670   -0.8840 c3        1 MOL      0.128215
     26 C12       -12.9370   -2.6640   -0.7850 c3        1 MOL      0.122729
     27 N3        -13.3600   -3.3090    0.4620 n4        1 MOL     -0.413997
     28 H8         -8.1410    0.2260   -2.0200 hn        1 MOL      0.219003
     29 H9         -8.8680   -2.1690   -0.3560 h1        1 MOL      0.055477
     30 H10        -9.1870   -3.1520   -2.5460 hc        1 MOL      0.019388
     31 H11        -9.1910   -1.5580   -3.2810 hc        1 MOL      0.019388
     32 H12       -11.5970   -2.4590   -2.9650 hc        1 MOL      0.010976
     33 H13       -11.3140   -0.9650   -2.1250 hc        1 MOL      0.010976
     34 H14       -11.0470   -2.0890   -0.0450 hc        1 MOL     -0.014093
     35 H15       -11.1830   -3.7330   -0.8890 hc        1 MOL     -0.014093
     36 H16       -13.3310   -3.1690   -1.6720 hx        1 MOL      0.040041
     37 H17       -13.3170   -1.6460   -0.8330 hx        1 MOL      0.040041
     38 H18       -12.9790   -4.2340    0.4550 hn        1 MOL      0.317366
     39 H19       -13.0390   -2.7620    1.2480 hn        1 MOL      0.317366
     40 H20       -14.3680   -3.3550    0.4350 hn        1 MOL      0.317366
     41 N4         -6.0700   -1.3430   -1.0720 n         1 MOL     -0.489171
     42 C13        -4.7180   -1.6360   -1.2370 c3        1 MOL     -0.031450
     43 C14        -4.3210   -2.7370   -0.1970 c         1 MOL      0.541924
     44 O6         -4.5940   -2.5330    0.9950 o         1 MOL     -0.476062
     45 C15        -3.9490   -0.3950   -1.0070 c3        1 MOL     -0.013205
     46 C16        -2.4880   -0.6000   -1.3760 c         1 MOL      0.668214
     47 O7         -1.6690   -0.8380   -0.4640 o         1 MOL     -0.743041
     48 O8         -2.0710   -0.5000   -2.5700 o         1 MOL     -0.743041
     49 H21        -6.3370   -0.3950   -0.8430 hn        1 MOL      0.298120
     50 H22        -4.5860   -2.0420   -2.2450 h1        1 MOL      0.044796
     51 H23        -4.0450   -0.0170    0.0040 hc        1 MOL      0.040447
     52 H24        -4.3210    0.3790   -1.6810 hc        1 MOL      0.040447
     53 N5         -3.6130   -3.7850   -0.5590 n         1 MOL     -0.215015
     54 C17        -3.2810   -4.9120    0.3470 c3        1 MOL     -0.265482
     55 C18        -2.4140   -4.6710    1.5980 c         1 MOL      0.566063
     56 O9         -2.4740   -5.4360    2.5600 o         1 MOL     -0.536095
     57 H25        -3.3640   -3.8770   -1.5360 hn        1 MOL      0.223055
     58 H26        -2.6400   -5.5940   -0.2090 h1        1 MOL      0.125570
     59 H27        -4.2120   -5.3930    0.6630 h1        1 MOL      0.125570
     60 N6         -1.7010   -3.5330    1.5970 n         1 MOL     -0.286188
     61 C19        -0.8730   -3.0970    2.7140 c3        1 MOL     -0.017774
     62 C20        -1.2190   -1.5680    3.0130 c         1 MOL      0.368682
     63 O10        -0.5550   -0.8700    3.8090 o         1 MOL     -0.526899
     64 C21         0.6030   -3.3220    2.4430 c3        1 MOL     -0.345810
     65 C22         1.3610   -2.5000    1.4250 c         1 MOL      0.669402
     66 N7          2.6550   -2.5880    1.3820 n         1 MOL     -0.686612
     67 O11         0.7600   -1.7720    0.6630 o         1 MOL     -0.579391
     68 H28        -1.7440   -2.9580    0.7690 hn        1 MOL      0.231669
     69 H29        -1.1260   -3.6990    3.5940 h1        1 MOL      0.150048
     70 H30         0.8530   -4.3830    2.3470 hc        1 MOL      0.127723
     71 H31         1.1340   -3.1070    3.3710 hc        1 MOL      0.127723
     72 H32         3.2220   -3.1530    2.0120 hn        1 MOL      0.342464
     73 H33         3.0700   -1.8570    0.8330 hn        1 MOL      0.342464
     74 N8         -2.2130   -1.0870    2.3080 n         1 MOL      0.098729
     75 C23        -2.9350    0.1500    2.7260 c3        1 MOL     -0.399435
     76 C24        -2.2970    1.4810    2.4080 c         1 MOL      0.603365
     77 O12        -2.6490    2.5700    2.9220 o         1 MOL     -0.553830
     78 H34        -2.6320   -1.6330    1.5670 hn        1 MOL     -0.046303
     79 H35        -3.0120    0.1190    3.8130 h1        1 MOL      0.180032
     80 H36        -3.9360    0.1500    2.3090 h1        1 MOL      0.180032
     81 N9         -1.2570    1.4860    1.5710 n         1 MOL     -0.426485
     82 C25        -0.4380    2.6000    1.0610 c3        1 MOL      0.066181
     83 C26         0.8860    2.1340    0.4380 c         1 MOL      0.137145
     84 O13         0.8680    1.2120   -0.3510 o         1 MOL     -0.397245
     85 C27        -1.2680    3.3170    0.0140 c3        1 MOL     -0.029941
     86 C28        -0.5340    4.3590   -0.8810 ca        1 MOL     -0.022969
     87 C29         0.1270    5.4610   -0.3260 ca        1 MOL     -0.098809
     88 C30        -0.5700    4.2240   -2.2580 ca        1 MOL     -0.098809
     89 C31         0.6680    6.4460   -1.2210 ca        1 MOL     -0.368376
     90 C32        -0.1510    5.1960   -3.1290 ca        1 MOL     -0.368376
     91 C33         0.3730    6.3830   -2.5610 ca        1 MOL      0.478824
     92 O14         0.6710    7.4140   -3.4050 oh        1 MOL     -0.520919
     93 H37        -1.1520    0.5870    1.1150 hn        1 MOL      0.303061
     94 H38        -0.2300    3.2130    1.9370 h1        1 MOL      0.074962
     95 H39        -1.8700    3.9420    0.6800 hc        1 MOL      0.071686
     96 H40        -2.0360    2.7810   -0.5330 hc        1 MOL      0.071686
     97 H41         0.2180    5.6000    0.7340 ha        1 MOL      0.138928
     98 H42        -0.8880    3.3190   -2.7640 ha        1 MOL      0.138928
     99 H43         1.0440    7.3600   -0.7670 ha        1 MOL      0.165369
    100 H44        -0.1710    5.1920   -4.2080 ha        1 MOL      0.165369
    101 H45         0.3870    7.2640   -4.3140 ho        1 MOL      0.367187
    102 N10         1.9860    2.8260    0.8650 n         1 MOL     -0.103405
    103 C34         3.3110    2.3100    0.5890 c3        1 MOL     -0.128231
    104 C35         3.5480    1.1370    1.5630 c         1 MOL      0.103989
    105 O15         4.2190    0.2160    1.1040 o         1 MOL     -0.362514
    106 C36         4.3320    3.3990    0.4820 c3        1 MOL     -0.099887
    107 C37         3.9930    4.3800   -0.7050 c3        1 MOL      0.192778
    108 C38         5.8240    2.9110    0.4570 c3        1 MOL     -0.298536
    109 C39         3.3950    3.8100   -1.9490 c3        1 MOL     -0.142430
    110 H46         1.9390    3.6250    1.4830 hn        1 MOL      0.227722
    111 H47         3.3740    1.7740   -0.3680 h1        1 MOL      0.199238
    112 H48         4.2910    3.9540    1.4210 hc        1 MOL      0.023788
    113 H49         4.7960    5.0860   -0.9320 hc        1 MOL     -0.017230
    114 H50         3.2110    5.0650   -0.3750 hc        1 MOL     -0.017230
    115 H51         5.9940    2.3930   -0.4820 hc        1 MOL      0.098445
    116 H52         6.3550    3.8450    0.2760 hc        1 MOL      0.098445
    117 H53         6.1820    2.3710    1.3370 hc        1 MOL      0.098445
    118 H54         2.3530    3.5630   -1.7370 hc        1 MOL      0.035862
    119 H55         3.4540    4.5480   -2.7530 hc        1 MOL      0.035862
    120 H56         3.9080    2.8850   -2.2170 hc        1 MOL      0.035862
    121 N11         2.9280    1.2200    2.7500 n         1 MOL      0.091758
    122 C40         3.0530    0.2220    3.8430 c3        1 MOL     -0.138070
    123 C41         4.4550   -0.1500    4.0790 c         1 MOL      0.383124
    124 O16         4.8670   -1.3070    4.3030 o         1 MOL     -0.486498
    125 C42         2.2850    0.6290    5.1590 c3        1 MOL      0.203451
    126 O17         1.1230    1.2350    4.7510 oh        1 MOL     -0.589143
    127 H57         2.3250    2.0100    2.9370 hn        1 MOL      0.163059
    128 H58         2.6030   -0.6950    3.4840 h1        1 MOL      0.065143
    129 H59         2.9200    1.3640    5.6580 h1        1 MOL      0.042769
    130 H60         1.9880   -0.1820    5.8090 h1        1 MOL      0.042769
    131 H61         0.3960    0.6170    4.7460 ho        1 MOL      0.411454
    132 N12         5.3750    0.8850    4.0890 n         1 MOL     -0.384366
    133 C43         6.9100    0.8650    4.2400 c3        1 MOL      0.264372
    134 C44         7.6820   -0.0810    3.3430 c         1 MOL      0.536306
    135 O18         8.8200   -0.3650    3.6500 o         1 MOL     -0.505921
    136 C45         7.2800    1.0060    5.7020 c3        1 MOL     -0.366823
    137 H62         4.9540    1.7890    3.9100 hn        1 MOL      0.232835
    138 H63         7.2240    1.8250    3.8400 h1        1 MOL      0.036538
    139 H64         8.3680    1.0160    5.7900 hc        1 MOL      0.102450
    140 H65         6.8050    1.8490    6.2180 hc        1 MOL      0.102450
    141 H66         6.9420    0.0950    6.1940 hc        1 MOL      0.102450
    142 N13         7.0440   -0.5150    2.1870 n         1 MOL     -0.641473
    143 C46         7.7080   -1.4430    1.3000 c3        1 MOL      0.593551
    144 C47         7.9900   -0.9810   -0.1670 c         1 MOL      0.298786
    145 O19         7.4960    0.0610   -0.6520 o         1 MOL     -0.509691
    146 C48         7.0610   -2.8170    1.4680 c3        1 MOL     -0.322582
    147 H67         6.1430   -0.1000    2.0050 hn        1 MOL      0.230550
    148 H68         8.6870   -1.6000    1.7600 h1        1 MOL     -0.046768
    149 H69         6.0020   -2.8140    1.2080 hc        1 MOL      0.075160
    150 H70         7.5250   -3.5270    0.7840 hc        1 MOL      0.075160
    151 H71         7.2820   -3.1490    2.4840 hc        1 MOL      0.075160
    152 N14         8.8950   -1.6370   -0.9150 n         1 MOL     -0.390586
    153 C49         9.4640   -1.1980   -2.1980 c3        1 MOL      0.057488
    154 C50        10.0860    0.2120   -2.2460 c         1 MOL      0.449105
    155 O20        10.0410    0.8140   -3.2830 o         1 MOL     -0.495420
    156 C51         8.6900   -1.7090   -3.3610 c3        1 MOL     -0.061308
    157 C52         8.9240   -3.2520   -3.6370 c3        1 MOL     -0.078772
    158 C53        10.2980   -3.5730   -4.1950 c         1 MOL      0.714545
    159 O21        11.3170   -2.8430   -3.9600 o         1 MOL     -0.638051
    160 O22        10.5330   -4.5490   -4.8850 o         1 MOL     -0.638051
    161 H72         9.1830   -2.5320   -0.5240 hn        1 MOL      0.267259
    162 H73        10.3170   -1.8760   -2.1730 h1        1 MOL      0.027043
    163 H74         8.9290   -1.2180   -4.3010 hc        1 MOL      0.044797
    164 H75         7.6430   -1.5300   -3.1010 hc        1 MOL      0.044797
    165 H76         8.0960   -3.5560   -4.2710 hc        1 MOL     -0.030369
    166 H77         8.6920   -3.8010   -2.7280 hc        1 MOL     -0.030369
    167 N15        10.6630    0.6650   -1.1330 n         1 MOL     -0.276931
    168 C54        11.3920    1.9840   -1.0710 c3        1 MOL      0.004638
    169 H78        11.4300    2.4250   -2.0670 h1        1 MOL      0.044779
    170 H79        10.8650    2.6590   -0.3950 h1        1 MOL      0.044779
    171 H80        12.4060    1.8230   -0.7070 h1        1 MOL      0.044779
    172 H81        10.6780    0.0570   -0.3290 hn        1 MOL      0.207938
    173 Ca1         0.4420   -1.0150   -1.8890 Ca        1 MOL      1.751230
    174 O23         0.4020    1.3690   -3.3320 oh        1 MOL     -0.830205
    175 H82        -0.3480    1.5450   -3.9020 ho        1 MOL      0.392751
    176 H83         1.1380    1.7840   -3.7720 ho        1 MOL      0.392751
    177 O24         3.1250   -0.3850   -2.2490 oh        1 MOL     -0.830205
    178 H84         3.4140    0.2180   -2.9370 ho        1 MOL      0.392751
    179 H85         3.9340   -0.8030   -1.9500 ho        1 MOL      0.392751
    180 O25         2.0120   -3.1350   -1.8110 oh        1 MOL     -0.830205
    181 H86         1.7670   -4.0070   -2.1110 ho        1 MOL      0.392751
    182 H87         2.8830   -2.9860   -2.1640 ho        1 MOL      0.392751
    183 O26        -0.8060   -3.3600   -2.6830 oh        1 MOL     -0.830205
    184 H88        -1.1810   -3.2220   -3.5540 ho        1 MOL      0.392751
    185 H89        -0.3000   -4.1710   -2.7670 ho        1 MOL      0.392751
    186 O27         0.6790   -1.4330   -4.4220 oh        1 MOL     -0.830205
    187 H90        -0.1110   -1.5140   -4.9550 ho        1 MOL      0.392751
    188 H91         1.3930   -1.4750   -5.0570 ho        1 MOL      0.392751
@<TRIPOS>BOND
     1    1    2 1   
     2    1    4 1   
     3    1    5 1   
     4    1    6 1   
     5    2    3 2   
     6    2    7 1   
     7    7    8 1   
     8    7   15 1   
     9    8    9 1   
    10    8   11 1   
    11    8   16 1   
    12    9   10 2   
    13    9   19 1   
    14   11   12 1   
    15   11   17 1   
    16   11   18 1   
    17   12   13 1   
    18   12   14 1   
    19   19   20 1   
    20   19   28 1   
    21   20   21 1   
    22   20   23 1   
    23   20   29 1   
    24   21   22 2   
    25   21   41 1   
    26   23   24 1   
    27   23   30 1   
    28   23   31 1   
    29   24   25 1   
    30   24   32 1   
    31   24   33 1   
    32   25   26 1   
    33   25   34 1   
    34   25   35 1   
    35   26   27 1   
    36   26   36 1   
    37   26   37 1   
    38   27   38 1   
    39   27   39 1   
    40   27   40 1   
    41   41   42 1   
    42   41   49 1   
    43   42   43 1   
    44   42   45 1   
    45   42   50 1   
    46   43   44 2   
    47   43   53 1   
    48   45   46 1   
    49   45   51 1   
    50   45   52 1   
    51   46   47 1   
    52   46   48 1   
    53   53   54 1   
    54   53   57 1   
    55   54   55 1   
    56   54   58 1   
    57   54   59 1   
    58   55   56 2   
    59   55   60 1   
    60   60   61 1   
    61   60   68 1   
    62   61   62 1   
    63   61   64 1   
    64   61   69 1   
    65   62   63 2   
    66   62   74 1   
    67   64   65 1   
    68   64   70 1   
    69   64   71 1   
    70   65   66 1   
    71   65   67 2   
    72   66   72 1   
    73   66   73 1   
    74   74   75 1   
    75   74   78 1   
    76   75   76 1   
    77   75   79 1   
    78   75   80 1   
    79   76   77 2   
    80   76   81 1   
    81   81   82 1   
    82   81   93 1   
    83   82   83 1   
    84   82   85 1   
    85   82   94 1   
    86   83   84 2   
    87   83  102 1   
    88   85   86 1   
    89   85   95 1   
    90   85   96 1   
    91   86   87 ar  
    92   86   88 ar  
    93   87   89 ar  
    94   87   97 1   
    95   88   90 ar  
    96   88   98 1   
    97   89   91 ar  
    98   89   99 1   
    99   90   91 ar  
   100   90  100 1   
   101   91   92 1   
   102   92  101 1   
   103  102  103 1   
   104  102  110 1   
   105  103  104 1   
   106  103  106 1   
   107  103  111 1   
   108  104  105 2   
   109  104  121 1   
   110  106  107 1   
   111  106  108 1   
   112  106  112 1   
   113  107  109 1   
   114  107  113 1   
   115  107  114 1   
   116  108  115 1   
   117  108  116 1   
   118  108  117 1   
   119  109  118 1   
   120  109  119 1   
   121  109  120 1   
   122  121  122 1   
   123  121  127 1   
   124  122  123 1   
   125  122  125 1   
   126  122  128 1   
   127  123  124 2   
   128  123  132 1   
   129  125  126 1   
   130  125  129 1   
   131  125  130 1   
   132  126  131 1   
   133  132  133 1   
   134  132  137 1   
   135  133  134 1   
   136  133  136 1   
   137  133  138 1   
   138  134  135 2   
   139  134  142 1   
   140  136  139 1   
   141  136  140 1   
   142  136  141 1   
   143  142  143 1   
   144  142  147 1   
   145  143  144 1   
   146  143  146 1   
   147  143  148 1   
   148  144  145 2   
   149  144  152 1   
   150  146  149 1   
   151  146  150 1   
   152  146  151 1   
   153  152  153 1   
   154  152  161 1   
   155  153  154 1   
   156  153  156 1   
   157  153  162 1   
   158  154  155 2   
   159  154  167 1   
   160  156  157 1   
   161  156  163 1   
   162  156  164 1   
   163  157  158 1   
   164  157  165 1   
   165  157  166 1   
   166  158  159 1   
   167  158  160 1   
   168  167  168 1   
   169  167  172 1   
   170  168  169 1   
   171  168  170 1   
   172  168  171 1   
   173  174  175 1   
   174  174  176 1   
   175  177  178 1   
   176  177  179 1   
   177  180  181 1   
   178  180  182 1   
   179  183  184 1   
   180  183  185 1   
   181  186  187 1   
   182  186  188 1   
@<TRIPOS>SUBSTRUCTURE
     1 MOL         1 TEMP              0 ****  ****    0 ROOT
