@<TRIPOS>MOLECULE
MOL
  191   184     1     0     0
SMALL
resp


@<TRIPOS>ATOM
      1 C1          1.4830    1.2210    2.5780 c3        1 MOL     -0.431120
      2 C2          2.7580    1.3260    1.6770 c         1 MOL      0.721084
      3 O1          2.6620    1.9620    0.5690 o         1 MOL     -0.601620
      4 H1          1.6520    0.4830    3.3630 hc        1 MOL      0.109893
      5 H2          1.2760    2.1910    3.0300 hc        1 MOL      0.109893
      6 H3          0.6320    0.9140    1.9710 hc        1 MOL      0.109893
      7 N1          3.8320    0.6310    2.0070 n         1 MOL     -0.560129
      8 C3          5.0590    0.5700    1.2380 c3        1 MOL      0.051664
      9 C4          5.7360   -0.8020    1.2740 c         1 MOL      0.556928
     10 O2          6.7490   -0.9610    0.6140 o         1 MOL     -0.462776
     11 C5          6.0560    1.7140    1.6440 c3        1 MOL      0.010282
     12 C6          6.4540    1.7020    3.1340 c         1 MOL      0.595592
     13 O3          6.1190    0.7420    3.8410 o         1 MOL     -0.685980
     14 O4          7.0890    2.7330    3.5130 o         1 MOL     -0.685980
     15 H4          3.7860    0.0620    2.8470 hn        1 MOL      0.295451
     16 H5          4.8040    0.7470    0.1890 h1        1 MOL      0.026020
     17 H6          5.5630    2.6680    1.4560 hc        1 MOL      0.031631
     18 H7          6.9500    1.6510    1.0260 hc        1 MOL      0.031631
     19 N2          5.3090   -1.7150    2.1340 n         1 MOL     -0.526615
     20 C7          5.7040   -3.1210    2.1820 c3        1 MOL      0.083195
     21 C8          5.8640   -3.7880    0.7990 c         1 MOL      0.510538
     22 O5          6.6860   -4.6960    0.6370 o         1 MOL     -0.518227
     23 C9          6.8560   -3.2180    3.2070 c3        1 MOL     -0.137405
     24 C10         6.2740   -2.8690    4.6450 c3        1 MOL      0.257823
     25 C11         7.3720   -3.0540    5.7010 c3        1 MOL     -0.112567
     26 C12         6.8020   -2.8620    7.0880 c3        1 MOL      0.071162
     27 N3          6.9070   -1.4100    7.5220 n4        1 MOL     -0.423502
     28 H8          4.5930   -1.4570    2.7910 hn        1 MOL      0.281174
     29 H9          4.8590   -3.6120    2.6620 h1        1 MOL      0.064166
     30 H10         7.6290   -2.4850    2.9850 hc        1 MOL      0.054912
     31 H11         7.2370   -4.2390    3.2650 hc        1 MOL      0.054912
     32 H12         5.4790   -3.5810    4.8560 hc        1 MOL     -0.058134
     33 H13         5.9260   -1.8350    4.6600 hc        1 MOL     -0.058134
     34 H14         8.1380   -2.2740    5.6110 hc        1 MOL      0.057258
     35 H15         7.7910   -4.0480    5.5650 hc        1 MOL      0.057258
     36 H16         7.3990   -3.4690    7.7690 hx        1 MOL      0.069468
     37 H17         5.7640   -3.1950    7.1430 hx        1 MOL      0.069468
     38 H18         6.4190   -0.7890    6.8870 hn        1 MOL      0.341905
     39 H19         6.4740   -1.3030    8.4190 hn        1 MOL      0.341905
     40 H20         7.8750   -1.1500    7.4920 hn        1 MOL      0.341905
     41 N4          5.0100   -3.4850   -0.2120 n         1 MOL     -0.502690
     42 C13         5.2110   -3.8590   -1.6110 c3        1 MOL      0.366654
     43 C14         5.2840   -2.5960   -2.4640 c         1 MOL      0.567009
     44 O6          4.6680   -2.5310   -3.5220 o         1 MOL     -0.573206
     45 C15         4.2470   -4.9110   -2.0700 c3        1 MOL     -0.319849
     46 C16         2.7520   -4.6310   -1.8180 c         1 MOL      0.827930
     47 O7          2.3520   -3.5070   -1.4410 o         1 MOL     -0.814574
     48 O8          1.9360   -5.5920   -2.0000 o         1 MOL     -0.814574
     49 H21         4.4020   -2.6900   -0.0330 hn        1 MOL      0.287257
     50 H22         6.2220   -4.2230   -1.7980 h1        1 MOL     -0.010096
     51 H23         4.5750   -5.8670   -1.6650 hc        1 MOL      0.073854
     52 H24         4.2810   -4.9430   -3.1590 hc        1 MOL      0.073854
     53 N5          6.1310   -1.5810   -2.0900 n         1 MOL     -0.495611
     54 C17         6.0310   -0.2670   -2.7160 c3        1 MOL      0.007941
     55 C18         7.0700    0.8030   -2.3250 c         1 MOL      0.616183
     56 O9          8.1860    0.3850   -2.1160 o         1 MOL     -0.545451
     57 H25         6.6920   -1.6650   -1.2590 hn        1 MOL      0.269412
     58 H26         4.9920    0.0620   -2.6760 h1        1 MOL      0.055346
     59 H27         6.1210   -0.2990   -3.8070 h1        1 MOL      0.055346
     60 N6          6.8810    2.0990   -2.3780 n         1 MOL     -0.606024
     61 C19         5.6420    2.8640   -2.6040 c3        1 MOL      0.313708
     62 C20         5.3500    3.7780   -1.4170 c         1 MOL      0.530556
     63 O10         6.2960    4.2750   -0.7910 o         1 MOL     -0.562456
     64 C21         5.7160    3.6030   -3.9750 c3        1 MOL     -0.337792
     65 C22         6.4140    4.9830   -3.9810 c         1 MOL      0.644407
     66 N7          7.6600    4.9980   -4.3840 n         1 MOL     -0.761439
     67 O11         5.8040    5.9610   -3.5680 o         1 MOL     -0.534100
     68 H28         7.7040    2.6860   -2.3180 hn        1 MOL      0.326619
     69 H29         4.7930    2.1890   -2.6180 h1        1 MOL     -0.008003
     70 H30         4.7060    3.7950   -4.3180 hc        1 MOL      0.078201
     71 H31         6.1420    2.9780   -4.7660 hc        1 MOL      0.078201
     72 H32         8.0580    4.1590   -4.7820 hn        1 MOL      0.369096
     73 H33         8.1340    5.8960   -4.3670 hn        1 MOL      0.369096
     74 N8          4.1820    4.2930   -0.9920 n         1 MOL     -0.295135
     75 C23         2.8350    4.0710   -1.5630 c3        1 MOL     -0.368869
     76 C24         1.7590    4.9070   -0.7360 c         1 MOL      0.808238
     77 O12         2.1120    5.9330   -0.1850 o         1 MOL     -0.538489
     78 H34         4.2250    4.8880   -0.1780 hn        1 MOL      0.287909
     79 H35         2.6100    3.0170   -1.4420 h1        1 MOL      0.129600
     80 H36         2.9580    4.4770   -2.5620 h1        1 MOL      0.129600
     81 N9          0.5070    4.4000   -0.7310 n         1 MOL     -0.700326
     82 C25        -0.7250    5.0500   -0.1820 c3        1 MOL      0.206182
     83 C26        -1.7450    4.0320    0.3160 c         1 MOL      0.710802
     84 O13        -1.6480    2.8630   -0.0320 o         1 MOL     -0.583854
     85 C27        -1.4550    5.9900   -1.2130 c3        1 MOL     -0.146126
     86 C28        -2.6290    6.8530   -0.7580 ca        1 MOL      0.068045
     87 C29        -3.8480    6.7860   -1.4480 ca        1 MOL     -0.163230
     88 C30        -2.5880    7.6510    0.4280 ca        1 MOL     -0.163230
     89 C31        -4.9860    7.5040   -1.1210 ca        1 MOL     -0.229926
     90 C32        -3.6900    8.4150    0.7740 ca        1 MOL     -0.229926
     91 C33        -4.9550    8.3520    0.0230 ca        1 MOL      0.282523
     92 O14        -6.1410    8.8240    0.4980 oh        1 MOL     -0.471811
     93 H37         0.3840    3.4550   -1.0660 hn        1 MOL      0.314370
     94 H38        -0.4600    5.6300    0.7020 h1        1 MOL      0.022610
     95 H39        -1.8110    5.2630   -1.9340 hc        1 MOL      0.069125
     96 H40        -0.7410    6.6430   -1.7340 hc        1 MOL      0.069125
     97 H41        -3.9690    6.0880   -2.2640 ha        1 MOL      0.134291
     98 H42        -1.6330    7.6670    0.9320 ha        1 MOL      0.134291
     99 H43        -5.9340    7.3940   -1.6260 ha        1 MOL      0.146646
    100 H44        -3.7480    8.9860    1.6870 ha        1 MOL      0.146646
    101 H45        -6.1560    9.1180    1.4160 ho        1 MOL      0.358189
    102 N10        -2.7200    4.4200    1.1710 n         1 MOL     -0.645039
    103 C34        -3.8110    3.5730    1.6650 c3        1 MOL     -0.021106
    104 C35        -4.6530    3.1600    0.4740 c         1 MOL      0.635802
    105 O15        -4.9340    4.0040   -0.3920 o         1 MOL     -0.500820
    106 C36        -4.6130    4.2310    2.8330 c3        1 MOL      0.219136
    107 C37        -5.2240    5.5870    2.4470 c3        1 MOL      0.141478
    108 C38        -5.6470    3.3210    3.4600 c3        1 MOL     -0.372063
    109 C39        -5.9340    6.3700    3.4890 c3        1 MOL     -0.532507
    110 H46        -2.6800    5.3960    1.4050 hn        1 MOL      0.257191
    111 H47        -3.3150    2.6730    2.0290 h1        1 MOL      0.090647
    112 H48        -3.9100    4.3930    3.6620 hc        1 MOL      0.005732
    113 H49        -5.9260    5.4340    1.6240 hc        1 MOL      0.030416
    114 H50        -4.4370    6.2600    2.0940 hc        1 MOL      0.030416
    115 H51        -5.6980    3.6040    4.5080 hc        1 MOL      0.093930
    116 H52        -6.6150    3.4030    2.9690 hc        1 MOL      0.093930
    117 H53        -5.2690    2.3030    3.3440 hc        1 MOL      0.093930
    118 H54        -5.2920    6.4650    4.3700 hc        1 MOL      0.125771
    119 H55        -6.1640    7.3930    3.1970 hc        1 MOL      0.125771
    120 H56        -6.9090    5.9040    3.6560 hc        1 MOL      0.125771
    121 N11        -5.0960    1.9120    0.4830 n         1 MOL     -0.619871
    122 C40        -6.2170    1.3100   -0.3770 c3        1 MOL      0.181747
    123 C41        -5.9680   -0.0710   -1.0530 c         1 MOL      0.601755
    124 O16        -5.0570   -0.8590   -0.6060 o         1 MOL     -0.471894
    125 C42        -7.4080    1.1560    0.5220 c3        1 MOL     -0.001624
    126 O17        -7.1200    0.3040    1.6420 oh        1 MOL     -0.581017
    127 H57        -4.7140    1.3870    1.2520 hn        1 MOL      0.328323
    128 H58        -6.4490    2.0950   -1.0980 h1        1 MOL      0.038598
    129 H59        -8.1010    0.6350   -0.1340 h1        1 MOL      0.049144
    130 H60        -7.8730    2.1160    0.7310 h1        1 MOL      0.049144
    131 H61        -7.9700    0.0860    2.0280 ho        1 MOL      0.434747
    132 N12        -6.6170   -0.3220   -2.2100 n         1 MOL     -0.591156
    133 C43        -6.4860   -1.5040   -3.0970 c3        1 MOL      0.246480
    134 C44        -6.6040   -2.8110   -2.3040 c         1 MOL      0.448399
    135 O18        -5.9000   -3.7790   -2.4220 o         1 MOL     -0.473344
    136 C45        -5.1630   -1.2560   -3.9090 c3        1 MOL     -0.270694
    137 H62        -7.3390    0.3590   -2.4420 hn        1 MOL      0.307290
    138 H63        -7.3230   -1.4390   -3.7910 h1        1 MOL      0.057104
    139 H64        -4.2790   -1.2460   -3.2800 hc        1 MOL      0.075615
    140 H65        -5.1800   -2.1600   -4.5190 hc        1 MOL      0.075615
    141 H66        -5.2010   -0.3980   -4.5860 hc        1 MOL      0.075615
    142 N13        -7.6130   -2.8270   -1.4440 n         1 MOL     -0.484332
    143 C46        -8.0140   -3.8790   -0.5150 c3        1 MOL      0.336480
    144 C47        -6.8620   -4.4700    0.3550 c         1 MOL      0.243522
    145 O19        -6.9060   -5.6760    0.6880 o         1 MOL     -0.467690
    146 C48        -8.8700   -4.8960   -1.1840 c3        1 MOL     -0.488359
    147 H67        -8.0380   -1.9130   -1.4260 hn        1 MOL      0.230878
    148 H68        -8.7130   -3.4470    0.2020 h1        1 MOL      0.015413
    149 H69        -8.2300   -5.5090   -1.8190 hc        1 MOL      0.136684
    150 H70        -9.3530   -5.5410   -0.4440 hc        1 MOL      0.136684
    151 H71        -9.5730   -4.4430   -1.8800 hc        1 MOL      0.136684
    152 N14        -5.8490   -3.6380    0.6540 n         1 MOL      0.058080
    153 C49        -4.8330   -4.0280    1.6260 c3        1 MOL     -0.143438
    154 C50        -5.4070   -3.8050    3.0760 c         1 MOL      0.428314
    155 O20        -5.0830   -4.5990    3.9530 o         1 MOL     -0.513275
    156 C51        -3.5610   -3.1960    1.2050 c3        1 MOL      0.450212
    157 C52        -2.2860   -3.8090    1.8610 c3        1 MOL     -0.269857
    158 C53        -1.6540   -4.8490    0.9280 c         1 MOL      0.721099
    159 O21        -0.8350   -4.4930    0.1030 o         1 MOL     -0.701805
    160 O22        -1.9620   -6.0150    1.1000 o         1 MOL     -0.701805
    161 H72        -5.8140   -2.6990    0.2770 hn        1 MOL      0.017696
    162 H73        -4.5270   -5.0690    1.6250 h1        1 MOL      0.126988
    163 H74        -3.7560   -2.2460    1.6960 hc        1 MOL     -0.148523
    164 H75        -3.5130   -3.1220    0.1160 hc        1 MOL     -0.148523
    165 H76        -2.4280   -4.0780    2.9060 hc        1 MOL      0.028202
    166 H77        -1.6550   -2.9260    1.8940 hc        1 MOL      0.028202
    167 N15        -6.3780   -2.9820    3.3590 n         1 MOL     -0.148516
    168 C54        -7.0970   -2.9530    4.6010 c3        1 MOL     -0.150641
    169 H78        -7.3250   -3.9730    4.9110 h1        1 MOL      0.074938
    170 H79        -6.4870   -2.4700    5.3640 h1        1 MOL      0.074938
    171 H80        -8.0260   -2.3970    4.4700 h1        1 MOL      0.074938
    172 H81        -6.8290   -2.4550    2.6290 hn        1 MOL      0.122387
    173 Ca1        -0.2120   -4.0070   -2.2580 Ca        1 MOL      1.771243
    174 O23        -1.1960   -4.9580   -4.6650 oh        1 MOL     -0.811862
    175 H82        -0.8020   -5.4610   -5.3850 ho        1 MOL      0.405758
    176 H83        -1.7650   -4.3230   -5.0940 ho        1 MOL      0.405758
    177 O24         1.1670   -3.1010   -4.2570 oh        1 MOL     -0.811862
    178 H84         1.6210   -2.2620   -4.2000 ho        1 MOL      0.405758
    179 H85         1.7020   -3.6340   -4.8440 ho        1 MOL      0.405758
    180 O25         0.0090   -1.4990   -0.9560 oh        1 MOL     -0.811862
    181 H86         0.6390   -0.8260   -1.2070 ho        1 MOL      0.405758
    182 H87        -0.7210   -1.0100   -0.5700 ho        1 MOL      0.405758
    183 O26        -1.6980   -2.0120   -3.3630 oh        1 MOL     -0.811862
    184 H88        -1.8240   -1.2640   -2.7790 ho        1 MOL      0.405758
    185 H89        -1.8520   -1.6580   -4.2460 ho        1 MOL      0.405758
    186 O27        -0.4010   -6.7980   -2.0540 oh        1 MOL     -0.811862
    187 H90         0.5440   -6.8770   -1.9960 ho        1 MOL      0.405758
    188 H91        -0.7370   -7.6430   -1.7340 ho        1 MOL      0.405758
    189 O28        -2.8710   -4.6300   -2.2240 oh        1 MOL     -0.811862
    190 H92        -3.5420   -4.0370   -2.5640 ho        1 MOL      0.405758
    191 H93        -3.3600   -5.2820   -1.7150 ho        1 MOL      0.405758
@<TRIPOS>BOND
     1    1    2 1   
     2    1    4 1   
     3    1    5 1   
     4    1    6 1   
     5    2    3 2   
     6    2    7 1   
     7    7    8 1   
     8    7   15 1   
     9    8    9 1   
    10    8   11 1   
    11    8   16 1   
    12    9   10 2   
    13    9   19 1   
    14   11   12 1   
    15   11   17 1   
    16   11   18 1   
    17   12   13 1   
    18   12   14 1   
    19   19   20 1   
    20   19   28 1   
    21   20   21 1   
    22   20   23 1   
    23   20   29 1   
    24   21   22 2   
    25   21   41 1   
    26   23   24 1   
    27   23   30 1   
    28   23   31 1   
    29   24   25 1   
    30   24   32 1   
    31   24   33 1   
    32   25   26 1   
    33   25   34 1   
    34   25   35 1   
    35   26   27 1   
    36   26   36 1   
    37   26   37 1   
    38   27   38 1   
    39   27   39 1   
    40   27   40 1   
    41   41   42 1   
    42   41   49 1   
    43   42   43 1   
    44   42   45 1   
    45   42   50 1   
    46   43   44 2   
    47   43   53 1   
    48   45   46 1   
    49   45   51 1   
    50   45   52 1   
    51   46   47 1   
    52   46   48 1   
    53   53   54 1   
    54   53   57 1   
    55   54   55 1   
    56   54   58 1   
    57   54   59 1   
    58   55   56 2   
    59   55   60 1   
    60   60   61 1   
    61   60   68 1   
    62   61   62 1   
    63   61   64 1   
    64   61   69 1   
    65   62   63 2   
    66   62   74 1   
    67   64   65 1   
    68   64   70 1   
    69   64   71 1   
    70   65   66 1   
    71   65   67 2   
    72   66   72 1   
    73   66   73 1   
    74   74   75 1   
    75   74   78 1   
    76   75   76 1   
    77   75   79 1   
    78   75   80 1   
    79   76   77 2   
    80   76   81 1   
    81   81   82 1   
    82   81   93 1   
    83   82   83 1   
    84   82   85 1   
    85   82   94 1   
    86   83   84 2   
    87   83  102 1   
    88   85   86 1   
    89   85   95 1   
    90   85   96 1   
    91   86   87 ar  
    92   86   88 ar  
    93   87   89 ar  
    94   87   97 1   
    95   88   90 ar  
    96   88   98 1   
    97   89   91 ar  
    98   89   99 1   
    99   90   91 ar  
   100   90  100 1   
   101   91   92 1   
   102   92  101 1   
   103  102  103 1   
   104  102  110 1   
   105  103  104 1   
   106  103  106 1   
   107  103  111 1   
   108  104  105 2   
   109  104  121 1   
   110  106  107 1   
   111  106  108 1   
   112  106  112 1   
   113  107  109 1   
   114  107  113 1   
   115  107  114 1   
   116  108  115 1   
   117  108  116 1   
   118  108  117 1   
   119  109  118 1   
   120  109  119 1   
   121  109  120 1   
   122  121  122 1   
   123  121  127 1   
   124  122  123 1   
   125  122  125 1   
   126  122  128 1   
   127  123  124 2   
   128  123  132 1   
   129  125  126 1   
   130  125  129 1   
   131  125  130 1   
   132  126  131 1   
   133  132  133 1   
   134  132  137 1   
   135  133  134 1   
   136  133  136 1   
   137  133  138 1   
   138  134  135 2   
   139  134  142 1   
   140  136  139 1   
   141  136  140 1   
   142  136  141 1   
   143  142  143 1   
   144  142  147 1   
   145  143  144 1   
   146  143  146 1   
   147  143  148 1   
   148  144  145 2   
   149  144  152 1   
   150  146  149 1   
   151  146  150 1   
   152  146  151 1   
   153  152  153 1   
   154  152  161 1   
   155  153  154 1   
   156  153  156 1   
   157  153  162 1   
   158  154  155 2   
   159  154  167 1   
   160  156  157 1   
   161  156  163 1   
   162  156  164 1   
   163  157  158 1   
   164  157  165 1   
   165  157  166 1   
   166  158  159 1   
   167  158  160 1   
   168  167  168 1   
   169  167  172 1   
   170  168  169 1   
   171  168  170 1   
   172  168  171 1   
   173  174  175 1   
   174  174  176 1   
   175  177  178 1   
   176  177  179 1   
   177  180  181 1   
   178  180  182 1   
   179  183  184 1   
   180  183  185 1   
   181  186  187 1   
   182  186  188 1   
   183  189  190 1   
   184  189  191 1   
@<TRIPOS>SUBSTRUCTURE
     1 MOL         1 TEMP              0 ****  ****    0 ROOT
