@<TRIPOS>MOLECULE
MOL
  195   189     1     0     0
SMALL
resp


@<TRIPOS>ATOM
      1 C1         -7.2560   -3.0660    4.2580 c3        1 MOL     -0.290809
      2 C2         -6.3600   -2.3600    3.1820 c         1 MOL      0.641060
      3 O1         -6.0930   -2.9180    2.1180 o         1 MOL     -0.623181
      4 H1         -6.6290   -3.4190    5.0770 hc        1 MOL      0.073656
      5 H2         -7.9910   -2.3590    4.6410 hc        1 MOL      0.073656
      6 H3         -7.7700   -3.9130    3.8040 hc        1 MOL      0.073656
      7 N1         -5.9520   -1.1370    3.3910 n         1 MOL     -0.318602
      8 C3         -5.3810   -0.3170    2.3630 c3        1 MOL      0.302215
      9 C4         -3.8550   -0.4430    2.2210 c         1 MOL      0.032370
     10 O2         -3.3990    0.0880    1.2080 o         1 MOL      0.035460
     11 C5         -5.6650    1.1230    2.7630 c3        1 MOL     -0.194021
     12 C6         -7.1240    1.4650    2.9040 c         1 MOL      0.691537
     13 O3         -7.8420    1.2000    3.8910 o         1 MOL     -0.694508
     14 O4         -7.7030    1.9290    1.8690 o         1 MOL     -0.694508
     15 H4         -6.0720   -0.7460    4.3100 hn        1 MOL      0.184875
     16 H5         -5.9320   -0.4670    1.4400 h1        1 MOL      0.078083
     17 H6         -5.3350    1.8840    2.0670 hc        1 MOL     -0.011469
     18 H7         -5.0650    1.3180    3.6550 hc        1 MOL     -0.011469
     19 N2         -3.0700   -1.0390    3.1550 n         1 MOL     -0.259360
     20 C7         -1.6000   -1.0650    2.9150 c3        1 MOL      0.040104
     21 C8         -1.2260   -2.2570    2.0180 c         1 MOL      0.208962
     22 O5         -1.6800   -3.3820    2.1790 o         1 MOL     -0.472505
     23 C9         -0.7690   -1.0970    4.1600 c3        1 MOL     -0.100990
     24 C10        -0.8260    0.2380    4.8970 c3        1 MOL     -0.055013
     25 C11        -0.1710    0.1210    6.2530 c3        1 MOL      0.118947
     26 C12        -0.9340   -0.8070    7.2200 c3        1 MOL      0.096852
     27 N3         -0.3670   -0.6720    8.6100 n4        1 MOL     -0.480823
     28 H8         -3.4930   -1.4650    3.9640 hn        1 MOL      0.210649
     29 H9         -1.3230   -0.1820    2.3410 h1        1 MOL      0.064729
     30 H10         0.2570   -1.3300    3.8730 hc        1 MOL      0.074654
     31 H11        -1.1600   -1.8640    4.8270 hc        1 MOL      0.074654
     32 H12        -1.8410    0.4650    5.2190 hc        1 MOL      0.042206
     33 H13        -0.3570    0.9950    4.2650 hc        1 MOL      0.042206
     34 H14        -0.0810    1.1090    6.7210 hc        1 MOL     -0.012173
     35 H15         0.8180   -0.3100    6.0840 hc        1 MOL     -0.012173
     36 H16        -0.8400   -1.8010    6.7820 hx        1 MOL      0.053037
     37 H17        -1.9730   -0.4710    7.1960 hx        1 MOL      0.053037
     38 H18        -1.0770   -0.9980    9.2520 hn        1 MOL      0.344831
     39 H19         0.4650   -1.2500    8.6600 hn        1 MOL      0.344831
     40 H20        -0.1450    0.2750    8.8920 hn        1 MOL      0.344831
     41 N4         -0.2170   -2.1780    1.1610 n         1 MOL     -0.046820
     42 C13         0.6560   -1.1020    0.6980 c3        1 MOL      0.008079
     43 C14         1.2640   -0.0740    1.6750 c         1 MOL      0.215194
     44 O6          0.6460    0.9640    1.9580 o         1 MOL     -0.338960
     45 C15        -0.0020   -0.5130   -0.5690 c3        1 MOL     -0.209202
     46 C16        -0.1950   -1.5110   -1.7130 c         1 MOL      0.533948
     47 O7          0.5850   -2.4620   -1.8230 o         1 MOL     -0.647967
     48 O8         -0.9830   -1.3480   -2.6630 o         1 MOL     -0.647967
     49 H21        -0.1540   -3.0240    0.6220 hn        1 MOL      0.120954
     50 H22         1.5080   -1.6770    0.3300 h1        1 MOL     -0.021610
     51 H23         0.6710    0.2640   -0.9320 hc        1 MOL      0.173216
     52 H24        -0.9890   -0.0900   -0.3930 hc        1 MOL      0.173216
     53 N5          2.5350   -0.2520    2.1060 n         1 MOL     -0.291493
     54 C17         3.2320   -1.4820    1.9360 c3        1 MOL      0.175761
     55 C18         4.1760   -1.8520    3.1050 c         1 MOL      0.514939
     56 O9          4.1400   -1.1560    4.0500 o         1 MOL     -0.528735
     57 H25         2.8630    0.2700    2.9080 hn        1 MOL      0.282868
     58 H26         3.8920   -1.3320    1.0720 h1        1 MOL      0.006447
     59 H27         2.5390   -2.3090    1.7770 h1        1 MOL      0.006447
     60 N6          5.0840   -2.8600    3.0070 n         1 MOL     -0.551063
     61 C19         5.1750   -3.6630    1.7550 c3        1 MOL      0.150219
     62 C20         6.2040   -3.0300    0.7320 c         1 MOL      0.475051
     63 O10         7.0090   -2.1800    1.0580 o         1 MOL     -0.453319
     64 C21         5.8060   -5.0640    2.0940 c3        1 MOL     -0.175223
     65 C22         7.1190   -5.0810    2.8100 c         1 MOL      0.684877
     66 O11         8.1410   -5.6940    2.3060 o         1 MOL     -0.670785
     67 O12         7.2190   -4.3300    3.8260 o         1 MOL     -0.670785
     68 H28         5.7880   -2.9700    3.7260 hn        1 MOL      0.365331
     69 H29         4.2040   -3.7830    1.2820 h1        1 MOL     -0.019531
     70 H30         5.8980   -5.7220    1.2310 hc        1 MOL      0.001373
     71 H31         5.0890   -5.4390    2.8250 hc        1 MOL      0.001373
     72 N7          6.3460   -3.4980   -0.4620 n         1 MOL     -0.147089
     73 C23         7.1580   -2.9580   -1.5810 c3        1 MOL     -0.473878
     74 C24         6.8650   -1.4990   -2.0450 c         1 MOL      0.600205
     75 O13         7.6930   -0.9220   -2.6850 o         1 MOL     -0.557943
     76 H32         5.6990   -4.2470   -0.6280 hn        1 MOL      0.150832
     77 H33         6.8920   -3.5480   -2.4660 h1        1 MOL      0.201372
     78 H34         8.2220   -3.0180   -1.3560 h1        1 MOL      0.201372
     79 N8          5.8020   -0.8790   -1.6410 n         1 MOL     -0.350518
     80 C25         5.4020    0.4840   -2.0010 c3        1 MOL      0.160292
     81 C26         5.7260    1.5380   -0.9200 c         1 MOL      0.440214
     82 O14         5.7120    1.3090    0.2880 o         1 MOL     -0.511236
     83 C27         3.8280    0.6390   -2.1910 c3        1 MOL      0.293113
     84 C28         3.3860   -0.2080   -3.3830 c3        1 MOL     -0.229525
     85 O15         3.4150    1.9700   -2.4900 oh        1 MOL     -0.618601
     86 H35         5.1380   -1.4710   -1.1690 hn        1 MOL      0.114460
     87 H36         5.8990    0.7580   -2.9280 h1        1 MOL      0.054962
     88 H37         3.2620    0.2990   -1.3270 h1        1 MOL      0.055077
     89 H38         2.4880    1.9800   -2.2550 ho        1 MOL      0.387302
     90 H39         3.6400   -1.2140   -3.0670 hc        1 MOL      0.045424
     91 H40         2.3120   -0.0730   -3.5390 hc        1 MOL      0.045424
     92 H41         4.0760    0.0250   -4.1970 hc        1 MOL      0.045424
     93 N9          5.8400    2.7710   -1.3390 n         1 MOL     -0.292862
     94 C29         6.0000    3.9110   -0.4240 c3        1 MOL     -0.197278
     95 C30         4.6880    4.6150   -0.0030 c         1 MOL      0.715949
     96 O16         4.6850    5.1820    1.0950 o         1 MOL     -0.572948
     97 C31         7.0090    4.8100   -1.1630 c3        1 MOL      0.132469
     98 C32         8.4740    4.0960   -1.3760 c3        1 MOL     -0.102440
     99 C33         7.3870    6.1360   -0.4770 c3        1 MOL     -0.344560
    100 C34         9.6440    4.9430   -1.9110 c3        1 MOL     -0.251239
    101 H42         6.0580    2.9390   -2.3080 hn        1 MOL      0.220856
    102 H43         6.4620    3.5700    0.4980 h1        1 MOL      0.147925
    103 H44         6.6630    5.0800   -2.1600 hc        1 MOL      0.010882
    104 H45         8.3510    3.1800   -1.9520 hc        1 MOL      0.077204
    105 H46         8.8680    3.7330   -0.4210 hc        1 MOL      0.077204
    106 H47         7.9170    5.8680    0.4390 hc        1 MOL      0.095782
    107 H48         8.0280    6.6760   -1.1800 hc        1 MOL      0.095782
    108 H49         6.4530    6.6730   -0.3190 hc        1 MOL      0.095782
    109 H50         9.3430    5.4740   -2.8070 hc        1 MOL      0.071551
    110 H51        10.0700    5.6380   -1.1850 hc        1 MOL      0.071551
    111 H52        10.4810    4.3100   -2.1990 hc        1 MOL      0.071551
    112 N10         3.5490    4.3980   -0.6570 n         1 MOL     -0.604234
    113 C35         2.2560    4.8540   -0.1790 c3        1 MOL      0.175487
    114 C36         1.1410    3.8190   -0.3760 c         1 MOL      0.626105
    115 O17         1.2400    2.8200   -1.1120 o         1 MOL     -0.516066
    116 C37         1.8910    6.1990   -0.9090 c3        1 MOL      0.277348
    117 C38         2.9970    7.2990   -0.8190 c3        1 MOL     -0.237092
    118 O18         0.6910    6.7920   -0.3600 oh        1 MOL     -0.640394
    119 H53         3.5910    3.8080   -1.4730 hn        1 MOL      0.274582
    120 H54         2.2690    5.1030    0.8860 h1        1 MOL      0.083633
    121 H55         1.8250    5.9750   -1.9720 h1        1 MOL     -0.000321
    122 H56         0.4340    7.4580   -1.0030 ho        1 MOL      0.406749
    123 H57         2.5210    8.2740   -0.9650 hc        1 MOL      0.060276
    124 H58         3.4550    7.2940    0.1670 hc        1 MOL      0.060276
    125 H59         3.7390    7.2540   -1.6060 hc        1 MOL      0.060276
    126 N11        -0.0300    4.0550    0.2140 n         1 MOL     -0.718739
    127 C39        -1.1700    3.1010    0.3280 c3        1 MOL      0.054483
    128 C40        -2.2100    3.2380   -0.7710 c         1 MOL      0.682878
    129 O19        -2.2380    4.1650   -1.5800 o         1 MOL     -0.588238
    130 C41        -1.8280    3.1870    1.6940 c3        1 MOL      0.293038
    131 C42        -2.6570    4.5220    1.9990 c3        1 MOL     -0.094259
    132 O20        -0.7970    3.0340    2.6560 oh        1 MOL     -0.603875
    133 H60        -0.1310    4.8850    0.7790 hn        1 MOL      0.393725
    134 H61        -0.8230    2.0710    0.2460 h1        1 MOL     -0.069081
    135 H62        -2.4810    2.3120    1.7590 h1        1 MOL     -0.026650
    136 H63        -0.2970    2.2780    2.3590 ho        1 MOL      0.331160
    137 H64        -3.2270    4.5470    2.9290 hc        1 MOL      0.033191
    138 H65        -1.9810    5.3720    2.0820 hc        1 MOL      0.033191
    139 H66        -3.3470    4.8240    1.2110 hc        1 MOL      0.033191
    140 N12        -3.0820    2.2800   -0.8370 n         1 MOL     -0.255761
    141 C43        -4.1940    2.1140   -1.8130 c3        1 MOL     -0.098124
    142 C44        -4.4850    0.7090   -2.3270 c         1 MOL      0.713506
    143 O21        -5.0000    0.6260   -3.4350 o         1 MOL     -0.631537
    144 C45        -5.4480    2.8560   -1.0970 c3        1 MOL     -0.076468
    145 C46        -6.4080    3.3960   -2.1810 c3        1 MOL      0.048589
    146 C47        -7.7140    4.1530   -1.8260 c3        1 MOL      0.016272
    147 C48        -8.6140    4.4520   -3.1210 c3        1 MOL     -0.001261
    148 N13        -9.6950    5.4740   -2.8970 n4        1 MOL     -0.271097
    149 H67        -2.9230    1.4610   -0.2650 hn        1 MOL     -0.040659
    150 H68        -3.8260    2.7390   -2.6270 h1        1 MOL      0.078936
    151 H69        -5.1180    3.7050   -0.4870 hc        1 MOL      0.043161
    152 H70        -5.9520    2.0610   -0.5400 hc        1 MOL      0.043161
    153 H71        -6.6540    2.5250   -2.7840 hc        1 MOL      0.002158
    154 H72        -5.8940    4.0960   -2.8450 hc        1 MOL      0.002158
    155 H73        -7.5320    5.1240   -1.3650 hc        1 MOL      0.029491
    156 H74        -8.4250    3.6570   -1.1560 hc        1 MOL      0.029491
    157 H75        -9.1340    3.5600   -3.4460 hx        1 MOL      0.087653
    158 H76        -7.9600    4.7770   -3.9280 hx        1 MOL      0.087653
    159 H77        -9.3400    6.3070   -2.4370 hn        1 MOL      0.297660
    160 H78       -10.0850    5.8150   -3.7540 hn        1 MOL      0.297660
    161 H79       -10.4060    5.1770   -2.2380 hn        1 MOL      0.297660
    162 N14        -4.1430   -0.3050   -1.5620 n         1 MOL     -0.212844
    163 C49        -4.3460   -1.7130   -1.8830 c3        1 MOL     -0.230234
    164 C50        -5.8040   -1.8470   -2.1730 c         1 MOL      0.448179
    165 O22        -6.6760   -1.2600   -1.4640 o         1 MOL     -0.480459
    166 C51        -3.8690   -2.5710   -0.7060 c3        1 MOL      0.208062
    167 C52        -4.0860   -4.1040   -0.8530 c3        1 MOL     -0.111233
    168 C53        -3.5120   -4.6270   -2.1150 c         1 MOL      0.518877
    169 O23        -2.2720   -4.5640   -2.2960 o         1 MOL     -0.709484
    170 O24        -4.2130   -4.9680   -3.0850 o         1 MOL     -0.709484
    171 H80        -3.7960   -0.0980   -0.6380 hn        1 MOL      0.024166
    172 H81        -3.8710   -1.9330   -2.8380 h1        1 MOL      0.150293
    173 H82        -4.4610   -2.1090    0.0830 hc        1 MOL     -0.016855
    174 H83        -2.8090   -2.2890   -0.6860 hc        1 MOL     -0.016855
    175 H84        -5.1380   -4.3880   -0.8010 hc        1 MOL      0.079735
    176 H85        -3.6740   -4.6930   -0.0300 hc        1 MOL      0.079735
    177 N15        -6.2340   -2.6030   -3.2090 n         1 MOL     -0.299703
    178 C54        -7.6180   -2.9310   -3.4790 c3        1 MOL     -0.017525
    179 H86        -7.8730   -2.6200   -4.4930 h1        1 MOL      0.045084
    180 H87        -7.7630   -4.0060   -3.3820 h1        1 MOL      0.045084
    181 H88        -8.2610   -2.4110   -2.7680 h1        1 MOL      0.045084
    182 H89        -5.5410   -2.9840   -3.8410 hn        1 MOL      0.315104
    183 Ca1         0.1080   -4.7060   -3.1280 Ca        1 MOL      1.636531
    184 O25         1.4400   -5.6790   -5.3670 oh        1 MOL     -0.765861
    185 H90         1.6490   -6.6030   -5.4490 ho        1 MOL      0.384509
    186 H91         2.2650   -5.2620   -5.1410 ho        1 MOL      0.384509
    187 O26        -1.8060   -5.5010   -5.1210 oh        1 MOL     -0.765861
    188 H92        -1.7080   -6.4400   -4.9780 ho        1 MOL      0.384509
    189 H93        -2.5340   -5.2430   -4.5500 ho        1 MOL      0.384509
    190 O27         2.4730   -3.5180   -3.8260 oh        1 MOL     -0.765861
    191 H94         2.9070   -3.0630   -3.1070 ho        1 MOL      0.384509
    192 H95         2.8280   -3.1130   -4.6170 ho        1 MOL      0.384509
    193 O28        -0.0720   -2.5400   -4.6800 oh        1 MOL     -0.765861
    194 H96        -0.3190   -2.3150   -5.5800 ho        1 MOL      0.384509
    195 H97        -0.4510   -1.8470   -4.1450 ho        1 MOL      0.384509
@<TRIPOS>BOND
     1    1    2 1   
     2    1    4 1   
     3    1    5 1   
     4    1    6 1   
     5    2    3 2   
     6    2    7 1   
     7    7    8 1   
     8    7   15 1   
     9    8    9 1   
    10    8   11 1   
    11    8   16 1   
    12    9   10 2   
    13    9   19 1   
    14   11   12 1   
    15   11   17 1   
    16   11   18 1   
    17   12   13 1   
    18   12   14 1   
    19   19   20 1   
    20   19   28 1   
    21   20   21 1   
    22   20   23 1   
    23   20   29 1   
    24   21   22 2   
    25   21   41 1   
    26   23   24 1   
    27   23   30 1   
    28   23   31 1   
    29   24   25 1   
    30   24   32 1   
    31   24   33 1   
    32   25   26 1   
    33   25   34 1   
    34   25   35 1   
    35   26   27 1   
    36   26   36 1   
    37   26   37 1   
    38   27   38 1   
    39   27   39 1   
    40   27   40 1   
    41   41   42 1   
    42   41   49 1   
    43   42   43 1   
    44   42   45 1   
    45   42   50 1   
    46   43   44 2   
    47   43   53 1   
    48   45   46 1   
    49   45   51 1   
    50   45   52 1   
    51   46   47 1   
    52   46   48 1   
    53   53   54 1   
    54   53   57 1   
    55   54   55 1   
    56   54   58 1   
    57   54   59 1   
    58   55   56 2   
    59   55   60 1   
    60   60   61 1   
    61   60   68 1   
    62   61   62 1   
    63   61   64 1   
    64   61   69 1   
    65   62   63 2   
    66   62   72 1   
    67   64   65 1   
    68   64   70 1   
    69   64   71 1   
    70   65   66 1   
    71   65   67 1   
    72   72   73 1   
    73   72   76 1   
    74   73   74 1   
    75   73   77 1   
    76   73   78 1   
    77   74   75 2   
    78   74   79 1   
    79   79   80 1   
    80   79   86 1   
    81   80   81 1   
    82   80   83 1   
    83   80   87 1   
    84   81   82 2   
    85   81   93 1   
    86   83   84 1   
    87   83   85 1   
    88   83   88 1   
    89   84   90 1   
    90   84   91 1   
    91   84   92 1   
    92   85   89 1   
    93   93   94 1   
    94   93  101 1   
    95   94   95 1   
    96   94   97 1   
    97   94  102 1   
    98   95   96 2   
    99   95  112 1   
   100   97   98 1   
   101   97   99 1   
   102   97  103 1   
   103   98  100 1   
   104   98  104 1   
   105   98  105 1   
   106   99  106 1   
   107   99  107 1   
   108   99  108 1   
   109  100  109 1   
   110  100  110 1   
   111  100  111 1   
   112  112  113 1   
   113  112  119 1   
   114  113  114 1   
   115  113  116 1   
   116  113  120 1   
   117  114  115 2   
   118  114  126 1   
   119  116  117 1   
   120  116  118 1   
   121  116  121 1   
   122  117  123 1   
   123  117  124 1   
   124  117  125 1   
   125  118  122 1   
   126  126  127 1   
   127  126  133 1   
   128  127  128 1   
   129  127  130 1   
   130  127  134 1   
   131  128  129 2   
   132  128  140 1   
   133  130  131 1   
   134  130  132 1   
   135  130  135 1   
   136  131  137 1   
   137  131  138 1   
   138  131  139 1   
   139  132  136 1   
   140  140  141 1   
   141  140  149 1   
   142  141  142 1   
   143  141  144 1   
   144  141  150 1   
   145  142  143 2   
   146  142  162 1   
   147  144  145 1   
   148  144  151 1   
   149  144  152 1   
   150  145  146 1   
   151  145  153 1   
   152  145  154 1   
   153  146  147 1   
   154  146  155 1   
   155  146  156 1   
   156  147  148 1   
   157  147  157 1   
   158  147  158 1   
   159  148  159 1   
   160  148  160 1   
   161  148  161 1   
   162  162  163 1   
   163  162  171 1   
   164  163  164 1   
   165  163  166 1   
   166  163  172 1   
   167  164  165 2   
   168  164  177 1   
   169  166  167 1   
   170  166  173 1   
   171  166  174 1   
   172  167  168 1   
   173  167  175 1   
   174  167  176 1   
   175  168  169 1   
   176  168  170 1   
   177  177  178 1   
   178  177  182 1   
   179  178  179 1   
   180  178  180 1   
   181  178  181 1   
   182  184  185 1   
   183  184  186 1   
   184  187  188 1   
   185  187  189 1   
   186  190  191 1   
   187  190  192 1   
   188  193  194 1   
   189  193  195 1   
@<TRIPOS>SUBSTRUCTURE
     1 MOL         1 TEMP              0 ****  ****    0 ROOT
