@<TRIPOS>MOLECULE
MOL
  192   187     1     0     0
SMALL
resp


@<TRIPOS>ATOM
      1 C1          4.7100   -0.8880    6.4160 c3        1 MOL     -0.285733
      2 C2          4.6850   -0.5170    4.9160 c         1 MOL      0.748974
      3 O1          4.5000    0.6490    4.5950 o         1 MOL     -0.626790
      4 H1          3.7880   -1.4070    6.6760 hc        1 MOL      0.068792
      5 H2          5.5610   -1.5380    6.6150 hc        1 MOL      0.068792
      6 H3          4.7970    0.0200    7.0130 hc        1 MOL      0.068792
      7 N1          4.7730   -1.4600    4.0230 n         1 MOL     -0.529126
      8 C3          4.7240   -1.3000    2.5780 c3        1 MOL      0.156941
      9 C4          3.3250   -0.7980    1.9500 c         1 MOL      0.025379
     10 O2          3.1970   -0.6620    0.7560 o         1 MOL     -0.216852
     11 C5          5.1810   -2.6530    1.9620 c3        1 MOL     -0.125484
     12 C6          4.7270   -3.8830    2.7410 c         1 MOL      0.700209
     13 O3          3.8920   -4.6460    2.1950 o         1 MOL     -0.682688
     14 O4          5.2280   -4.1260    3.8540 o         1 MOL     -0.682688
     15 H4          4.8430   -2.4090    4.3560 hn        1 MOL      0.273921
     16 H5          5.5270   -0.5880    2.3360 h1        1 MOL      0.123420
     17 H6          6.2540   -2.5820    1.8660 hc        1 MOL      0.009177
     18 H7          4.8100   -2.7250    0.9390 hc        1 MOL      0.009177
     19 N2          2.3630   -0.6340    2.8780 n         1 MOL     -0.025414
     20 C7          0.9590   -0.5430    2.5660 c3        1 MOL     -0.024962
     21 C8          0.1880    0.6880    3.0710 c         1 MOL      0.399246
     22 O5          0.4290    1.2000    4.1560 o         1 MOL     -0.503383
     23 C9          0.2270   -1.8480    3.0980 c3        1 MOL     -0.040885
     24 C10         0.7190   -3.1200    2.4780 c3        1 MOL      0.148065
     25 C11         0.2660   -4.3530    3.2430 c3        1 MOL     -0.341916
     26 C12         0.7120   -5.7100    2.6990 c3        1 MOL      0.222173
     27 N3         -0.1090   -6.1810    1.5690 n4        1 MOL     -0.422778
     28 H8          2.5960   -0.9690    3.8050 hn        1 MOL      0.195129
     29 H9          0.8140   -0.6470    1.4970 h1        1 MOL      0.116343
     30 H10        -0.8570   -1.8570    3.0050 hc        1 MOL      0.045094
     31 H11         0.4860   -1.8500    4.1660 hc        1 MOL      0.045094
     32 H12         1.8100   -3.1950    2.4490 hc        1 MOL     -0.017936
     33 H13         0.2700   -3.1330    1.4790 hc        1 MOL     -0.017936
     34 H14        -0.8030   -4.3670    3.4660 hc        1 MOL      0.099015
     35 H15         0.7780   -4.2750    4.2040 hc        1 MOL      0.099015
     36 H16         0.6730   -6.4890    3.4530 hx        1 MOL      0.048028
     37 H17         1.7740   -5.7540    2.4700 hx        1 MOL      0.048028
     38 H18         0.2920   -6.2010    0.6380 hn        1 MOL      0.331648
     39 H19        -0.4400   -7.1280    1.6970 hn        1 MOL      0.331648
     40 H20        -0.9240   -5.5960    1.6250 hn        1 MOL      0.331648
     41 N4         -0.7390    1.2790    2.2910 n         1 MOL     -0.250626
     42 C13        -1.1490    0.9730    0.9030 c3        1 MOL     -0.279642
     43 C14        -1.6060   -0.4440    0.6010 c         1 MOL      0.236659
     44 O6         -1.0780   -1.0650   -0.2950 o         1 MOL     -0.521300
     45 C15        -0.3370    1.6710   -0.2180 c3        1 MOL      0.359494
     46 C16        -0.1480    3.1900   -0.1260 c         1 MOL      0.441252
     47 O7         -0.9850    3.8520    0.5610 o         1 MOL     -0.767202
     48 O8          0.7350    3.7640   -0.7950 o         1 MOL     -0.767202
     49 H21        -1.2370    2.0250    2.7450 hn        1 MOL      0.262024
     50 H22        -2.1040    1.4660    0.7110 h1        1 MOL      0.145521
     51 H23        -0.6960    1.3380   -1.1920 hc        1 MOL      0.010362
     52 H24         0.6850    1.2730   -0.2180 hc        1 MOL      0.010362
     53 N5         -2.5490   -1.0330    1.3350 n         1 MOL     -0.184504
     54 C17        -3.4710   -0.4300    2.3450 c3        1 MOL      0.013801
     55 C18        -4.5030   -1.5370    2.6580 c         1 MOL      0.408809
     56 O9         -4.2160   -2.7450    2.6090 o         1 MOL     -0.538063
     57 H25        -2.7930   -1.9700    1.0490 hn        1 MOL      0.182055
     58 H26        -3.9860    0.3710    1.8150 h1        1 MOL      0.053758
     59 H27        -3.0130   -0.0120    3.2370 h1        1 MOL      0.053758
     60 N6         -5.7690   -1.2380    3.0190 n         1 MOL     -0.325914
     61 C19        -6.4650    0.0690    3.1270 c3        1 MOL     -0.043293
     62 C20        -7.3900    0.2910    1.9330 c         1 MOL      0.428254
     63 O10        -7.7840   -0.5780    1.1370 o         1 MOL     -0.469750
     64 C21        -7.0870    0.2710    4.5170 c3        1 MOL     -0.138998
     65 C22        -7.8600   -1.0100    5.0300 c         1 MOL      0.710182
     66 O11        -7.4830   -1.5320    6.0480 o         1 MOL     -0.672678
     67 O12        -8.6950   -1.5220    4.2790 o         1 MOL     -0.672678
     68 H28        -6.3680   -2.0450    3.0950 hn        1 MOL      0.334799
     69 H29        -5.6920    0.8180    2.9210 h1        1 MOL      0.060134
     70 H30        -7.8420    1.0520    4.4780 hc        1 MOL      0.006646
     71 H31        -6.3370    0.7370    5.1510 hc        1 MOL      0.006646
     72 N7         -7.5350    1.5870    1.6930 n         1 MOL     -0.228030
     73 C23        -8.4040    2.0460    0.5780 c3        1 MOL     -0.324292
     74 C24        -7.8310    1.6830   -0.8520 c         1 MOL      0.495812
     75 O13        -8.5810    1.4600   -1.8050 o         1 MOL     -0.510033
     76 H32        -6.9990    2.2260    2.2650 hn        1 MOL      0.223593
     77 H33        -8.5240    3.1220    0.7250 h1        1 MOL      0.160595
     78 H34        -9.4300    1.7060    0.7250 h1        1 MOL      0.160595
     79 N8         -6.5030    1.5890   -0.9430 n         1 MOL     -0.211430
     80 C25        -5.7870    1.1820   -2.1550 c3        1 MOL     -0.292975
     81 C26        -4.6900    0.1810   -1.6840 c         1 MOL      0.369399
     82 O14        -3.9380    0.4350   -0.7510 o         1 MOL     -0.351942
     83 C27        -5.0340    2.2610   -3.0230 c3        1 MOL      0.218908
     84 C28        -4.0960    3.1190   -2.1810 c3        1 MOL     -0.235375
     85 O15        -5.9660    3.3300   -3.4490 oh        1 MOL     -0.641876
     86 H35        -5.9710    1.9130   -0.1420 hn        1 MOL      0.225344
     87 H36        -6.4650    0.6340   -2.8090 h1        1 MOL      0.201021
     88 H37        -4.4740    1.8910   -3.8860 h1        1 MOL      0.124802
     89 H38        -6.3770    3.8060   -2.7270 ho        1 MOL      0.416257
     90 H39        -3.2990    2.4460   -1.8720 hc        1 MOL      0.061473
     91 H40        -3.7500    3.9880   -2.7400 hc        1 MOL      0.061473
     92 H41        -4.6170    3.3630   -1.2530 hc        1 MOL      0.061473
     93 N9         -4.7400   -0.9780   -2.3380 n         1 MOL     -0.143482
     94 C29        -3.9110   -2.1260   -2.0520 c3        1 MOL     -0.515514
     95 C30        -2.6530   -2.1690   -2.9560 c         1 MOL      0.370845
     96 O16        -2.0230   -3.1900   -3.2260 o         1 MOL     -0.472970
     97 C31        -4.7520   -3.4310   -1.9530 c3        1 MOL      0.526694
     98 C32        -5.5270   -3.8640   -3.2380 c3        1 MOL     -0.060851
     99 C33        -5.6170   -3.3180   -0.6700 c3        1 MOL     -0.494248
    100 C34        -6.6300   -4.8980   -2.9600 c3        1 MOL     -0.368688
    101 H42        -5.4780   -1.0070   -3.0280 hn        1 MOL      0.201464
    102 H43        -3.4260   -1.9820   -1.0870 h1        1 MOL      0.297175
    103 H44        -3.9730   -4.1870   -1.8310 hc        1 MOL     -0.087161
    104 H45        -4.8520   -4.1540   -4.0460 hc        1 MOL      0.043945
    105 H46        -6.1130   -2.9700   -3.4260 hc        1 MOL      0.043945
    106 H47        -6.0310   -4.2450   -0.2820 hc        1 MOL      0.123616
    107 H48        -4.9260   -2.9570    0.0800 hc        1 MOL      0.123616
    108 H49        -6.3950   -2.5590   -0.7200 hc        1 MOL      0.123616
    109 H50        -7.4580   -4.3670   -2.4740 hc        1 MOL      0.102108
    110 H51        -7.0240   -5.2550   -3.9170 hc        1 MOL      0.102108
    111 H52        -6.1740   -5.7200   -2.4070 hc        1 MOL      0.102108
    112 N10        -2.4670   -1.0180   -3.5860 n         1 MOL     -0.093377
    113 C35        -1.4200   -0.9150   -4.5840 c3        1 MOL     -0.080034
    114 C36        -0.0100   -1.2580   -4.0880 c         1 MOL      0.397545
    115 O17         0.7210   -1.8980   -4.8960 o         1 MOL     -0.526276
    116 C37        -1.4770    0.5450   -5.1200 c3        1 MOL      0.337701
    117 C38        -0.1990    1.0940   -5.7740 c3        1 MOL     -0.429346
    118 O18        -1.9690    1.5230   -4.1650 oh        1 MOL     -0.644292
    119 H53        -3.0670   -0.2210   -3.4080 hn        1 MOL      0.075610
    120 H54        -1.6800   -1.5780   -5.4160 h1        1 MOL      0.109120
    121 H55        -2.3100    0.5040   -5.8310 h1        1 MOL     -0.011412
    122 H56        -2.4790    2.1130   -4.7110 ho        1 MOL      0.412252
    123 H57         0.3540    0.2890   -6.2600 hc        1 MOL      0.130925
    124 H58        -0.4230    1.8220   -6.5480 hc        1 MOL      0.130925
    125 H59         0.4350    1.5730   -5.0230 hc        1 MOL      0.130925
    126 N11         0.3140   -1.1930   -2.7930 n         1 MOL     -0.414138
    127 C39         1.5940   -1.4840   -2.1160 c3        1 MOL      0.075954
    128 C40         2.9000   -0.8670   -2.7010 c         1 MOL      0.416582
    129 O19         2.9820   -0.6270   -3.8830 o         1 MOL     -0.497362
    130 C41         1.6330   -3.0320   -1.9880 c3        1 MOL      0.585580
    131 C42         2.6300   -3.5120   -0.9950 c3        1 MOL     -0.586344
    132 O20         2.0680   -3.6290   -3.2130 oh        1 MOL     -0.682868
    133 H60        -0.3520   -0.7770   -2.1690 hn        1 MOL      0.373525
    134 H61         1.4460   -1.0070   -1.1500 h1        1 MOL     -0.007992
    135 H62         0.6130   -3.3220   -1.7560 h1        1 MOL     -0.081750
    136 H63         1.5280   -3.0390   -3.7450 ho        1 MOL      0.407136
    137 H64         2.3810   -4.5320   -0.7240 hc        1 MOL      0.135569
    138 H65         3.6460   -3.5180   -1.3960 hc        1 MOL      0.135569
    139 H66         2.6560   -2.8060   -0.1620 hc        1 MOL      0.135569
    140 N12         3.8940   -0.6090   -1.8330 n         1 MOL     -0.291690
    141 C43         5.2370   -0.0560   -2.1770 c3        1 MOL     -0.036608
    142 C44         5.7560    1.1700   -1.3490 c         1 MOL      0.671613
    143 O21         6.6330    1.7930   -1.8470 o         1 MOL     -0.600454
    144 C45         6.1720   -1.2920   -2.0900 c3        1 MOL      0.004141
    145 C46         6.0410   -2.2550   -3.2570 c3        1 MOL      0.045120
    146 C47         7.1170   -3.3590   -3.0790 c3        1 MOL     -0.048290
    147 C48         6.8320   -4.5960   -3.9130 c3        1 MOL     -0.037488
    148 N13         8.0770   -5.4080   -3.8700 n4        1 MOL     -0.209746
    149 H67         3.7320   -0.6960   -0.8420 hn        1 MOL      0.310818
    150 H68         5.1450    0.2430   -3.2170 h1        1 MOL      0.076483
    151 H69         5.8800   -1.8240   -1.1820 hc        1 MOL     -0.007805
    152 H70         7.2080   -0.9750   -2.0110 hc        1 MOL     -0.007805
    153 H71         6.2030   -1.6690   -4.1630 hc        1 MOL      0.010882
    154 H72         5.0170   -2.6410   -3.1880 hc        1 MOL      0.010882
    155 H73         7.0990   -3.6720   -2.0340 hc        1 MOL      0.042203
    156 H74         8.0500   -2.8610   -3.2900 hc        1 MOL      0.042203
    157 H75         6.5540   -4.3640   -4.9470 hx        1 MOL      0.110030
    158 H76         6.0710   -5.1230   -3.3420 hx        1 MOL      0.110030
    159 H77         8.2870   -5.6490   -2.9160 hn        1 MOL      0.268791
    160 H78         8.0670   -6.2830   -4.3820 hn        1 MOL      0.268791
    161 H79         8.8660   -4.8700   -4.1920 hn        1 MOL      0.268791
    162 N14         5.2080    1.4850   -0.1970 n         1 MOL     -0.108929
    163 C49         5.5760    2.5350    0.7550 c3        1 MOL     -0.588229
    164 C50         6.9990    2.3860    1.3210 c         1 MOL      0.571939
    165 O22         7.3590    1.2960    1.8350 o         1 MOL     -0.521440
    166 C51         4.5420    2.8820    1.8390 c3        1 MOL      0.785259
    167 C52         3.1000    3.1380    1.3630 c3        1 MOL     -0.594540
    168 C53         3.0230    4.5320    0.7510 c         1 MOL      1.228837
    169 O23         3.6810    4.8960   -0.2560 o         1 MOL     -0.933505
    170 O24         2.2440    5.4070    1.3200 o         1 MOL     -0.933505
    171 H80         4.3140    1.0560   -0.0030 hn        1 MOL     -0.148674
    172 H81         5.6300    3.4170    0.1070 h1        1 MOL      0.259401
    173 H82         4.8610    3.8070    2.3150 hc        1 MOL     -0.177439
    174 H83         4.4990    1.9930    2.4810 hc        1 MOL     -0.177439
    175 H84         2.4270    3.0490    2.2110 hc        1 MOL      0.142952
    176 H85         2.8950    2.3420    0.6470 hc        1 MOL      0.142952
    177 N15         7.7170    3.4780    1.2520 n         1 MOL     -0.282736
    178 C54         9.1400    3.5080    1.5810 c3        1 MOL     -0.199018
    179 H86         9.6470    4.2210    0.9310 h1        1 MOL      0.097449
    180 H87         9.2670    3.8100    2.6200 h1        1 MOL      0.097449
    181 H88         9.5680    2.5170    1.4350 h1        1 MOL      0.097449
    182 H89         7.3100    4.3330    0.9030 hn        1 MOL      0.262353
    183 Ca1        -0.0720    6.2490    0.0020 Ca        1 MOL      1.780442
    184 O25        -0.4010    5.5970   -2.6460 oh        1 MOL     -0.909132
    185 H90         0.3480    5.8840   -3.1730 ho        1 MOL      0.454204
    186 H91        -0.4000    4.6460   -2.7230 ho        1 MOL      0.454204
    187 O26         0.6470    8.6420    0.8930 oh        1 MOL     -0.909132
    188 H92         1.4910    8.7410    1.3380 ho        1 MOL      0.454204
    189 H93         0.1790    9.4550    1.0870 ho        1 MOL      0.454204
    190 O27         2.1410    6.6320   -1.5230 oh        1 MOL     -0.909132
    191 H94         2.6360    5.8220   -1.3860 ho        1 MOL      0.454204
    192 H95         2.7320    7.3290   -1.2600 ho        1 MOL      0.454204
@<TRIPOS>BOND
     1    1    2 1   
     2    1    4 1   
     3    1    5 1   
     4    1    6 1   
     5    2    3 2   
     6    2    7 1   
     7    7    8 1   
     8    7   15 1   
     9    8    9 1   
    10    8   11 1   
    11    8   16 1   
    12    9   10 2   
    13    9   19 1   
    14   11   12 1   
    15   11   17 1   
    16   11   18 1   
    17   12   13 1   
    18   12   14 1   
    19   19   20 1   
    20   19   28 1   
    21   20   21 1   
    22   20   23 1   
    23   20   29 1   
    24   21   22 2   
    25   21   41 1   
    26   23   24 1   
    27   23   30 1   
    28   23   31 1   
    29   24   25 1   
    30   24   32 1   
    31   24   33 1   
    32   25   26 1   
    33   25   34 1   
    34   25   35 1   
    35   26   27 1   
    36   26   36 1   
    37   26   37 1   
    38   27   38 1   
    39   27   39 1   
    40   27   40 1   
    41   41   42 1   
    42   41   49 1   
    43   42   43 1   
    44   42   45 1   
    45   42   50 1   
    46   43   44 2   
    47   43   53 1   
    48   45   46 1   
    49   45   51 1   
    50   45   52 1   
    51   46   47 1   
    52   46   48 1   
    53   53   54 1   
    54   53   57 1   
    55   54   55 1   
    56   54   58 1   
    57   54   59 1   
    58   55   56 2   
    59   55   60 1   
    60   60   61 1   
    61   60   68 1   
    62   61   62 1   
    63   61   64 1   
    64   61   69 1   
    65   62   63 2   
    66   62   72 1   
    67   64   65 1   
    68   64   70 1   
    69   64   71 1   
    70   65   66 1   
    71   65   67 1   
    72   72   73 1   
    73   72   76 1   
    74   73   74 1   
    75   73   77 1   
    76   73   78 1   
    77   74   75 2   
    78   74   79 1   
    79   79   80 1   
    80   79   86 1   
    81   80   81 1   
    82   80   83 1   
    83   80   87 1   
    84   81   82 2   
    85   81   93 1   
    86   83   84 1   
    87   83   85 1   
    88   83   88 1   
    89   84   90 1   
    90   84   91 1   
    91   84   92 1   
    92   85   89 1   
    93   93   94 1   
    94   93  101 1   
    95   94   95 1   
    96   94   97 1   
    97   94  102 1   
    98   95   96 2   
    99   95  112 1   
   100   97   98 1   
   101   97   99 1   
   102   97  103 1   
   103   98  100 1   
   104   98  104 1   
   105   98  105 1   
   106   99  106 1   
   107   99  107 1   
   108   99  108 1   
   109  100  109 1   
   110  100  110 1   
   111  100  111 1   
   112  112  113 1   
   113  112  119 1   
   114  113  114 1   
   115  113  116 1   
   116  113  120 1   
   117  114  115 2   
   118  114  126 1   
   119  116  117 1   
   120  116  118 1   
   121  116  121 1   
   122  117  123 1   
   123  117  124 1   
   124  117  125 1   
   125  118  122 1   
   126  126  127 1   
   127  126  133 1   
   128  127  128 1   
   129  127  130 1   
   130  127  134 1   
   131  128  129 2   
   132  128  140 1   
   133  130  131 1   
   134  130  132 1   
   135  130  135 1   
   136  131  137 1   
   137  131  138 1   
   138  131  139 1   
   139  132  136 1   
   140  140  141 1   
   141  140  149 1   
   142  141  142 1   
   143  141  144 1   
   144  141  150 1   
   145  142  143 2   
   146  142  162 1   
   147  144  145 1   
   148  144  151 1   
   149  144  152 1   
   150  145  146 1   
   151  145  153 1   
   152  145  154 1   
   153  146  147 1   
   154  146  155 1   
   155  146  156 1   
   156  147  148 1   
   157  147  157 1   
   158  147  158 1   
   159  148  159 1   
   160  148  160 1   
   161  148  161 1   
   162  162  163 1   
   163  162  171 1   
   164  163  164 1   
   165  163  166 1   
   166  163  172 1   
   167  164  165 2   
   168  164  177 1   
   169  166  167 1   
   170  166  173 1   
   171  166  174 1   
   172  167  168 1   
   173  167  175 1   
   174  167  176 1   
   175  168  169 1   
   176  168  170 1   
   177  177  178 1   
   178  177  182 1   
   179  178  179 1   
   180  178  180 1   
   181  178  181 1   
   182  184  185 1   
   183  184  186 1   
   184  187  188 1   
   185  187  189 1   
   186  190  191 1   
   187  190  192 1   
@<TRIPOS>SUBSTRUCTURE
     1 MOL         1 TEMP              0 ****  ****    0 ROOT
