@<TRIPOS>MOLECULE
MOL
  184   179     1     0     0
SMALL
resp


@<TRIPOS>ATOM
      1 C1         -6.8450   -1.3460   -6.6560 c3        1 MOL     -0.138877
      2 C2         -6.3850   -0.2350   -5.6510 c         1 MOL      0.606591
      3 O1         -5.2980    0.3150   -5.8680 o         1 MOL     -0.589291
      4 H1         -7.7140   -1.8640   -6.2500 hc        1 MOL      0.030636
      5 H2         -7.1100   -0.8880   -7.6090 hc        1 MOL      0.030636
      6 H3         -6.0340   -2.0590   -6.8060 hc        1 MOL      0.030636
      7 N1         -7.0880    0.0990   -4.5930 n         1 MOL     -0.404572
      8 C3         -8.2190   -0.6430   -3.9770 c3        1 MOL     -0.106129
      9 C4         -7.7890   -1.7860   -3.0550 c         1 MOL      0.659257
     10 O2         -6.5860   -1.8350   -2.7390 o         1 MOL     -0.517549
     11 C5         -9.1510    0.3090   -3.2430 c3        1 MOL     -0.176053
     12 C6         -8.5380    0.7830   -1.9650 c         1 MOL      0.596976
     13 O3         -9.1620    0.5500   -0.8860 o         1 MOL     -0.667184
     14 O4         -7.4570    1.4090   -1.9890 o         1 MOL     -0.667184
     15 H4         -6.5980    0.8100   -4.0500 hn        1 MOL      0.254702
     16 H5         -8.8110   -1.0780   -4.7910 h1        1 MOL      0.088339
     17 H6        -10.0360   -0.2140   -2.8720 hc        1 MOL      0.062269
     18 H7         -9.5360    1.1140   -3.8680 hc        1 MOL      0.062269
     19 N2         -8.6850   -2.6700   -2.6430 n         1 MOL     -0.626392
     20 C7         -8.3130   -3.9490   -2.1040 c3        1 MOL      0.345735
     21 C8         -7.7550   -3.8940   -0.6410 c         1 MOL      0.430122
     22 O5         -7.7780   -4.9780   -0.0400 o         1 MOL     -0.562405
     23 C9         -7.5480   -4.7580   -3.1270 c3        1 MOL     -0.373142
     24 H8         -9.6610   -2.4140   -2.5370 hn        1 MOL      0.325138
     25 H9         -9.2160   -4.5490   -1.9730 h1        1 MOL      0.002052
     26 H10        -7.3450   -5.7620   -2.7490 hc        1 MOL      0.107617
     27 H11        -8.2070   -4.7140   -3.9920 hc        1 MOL      0.107617
     28 H12        -6.5550   -4.3650   -3.3870 hc        1 MOL      0.107617
     29 N3         -7.4690   -2.7800    0.0260 n         1 MOL     -0.333649
     30 C10        -7.1090   -2.6390    1.4490 c3        1 MOL      0.172112
     31 C11        -7.4920   -1.1360    1.8260 c         1 MOL      0.151045
     32 O6         -7.2550   -0.2520    0.9960 o         1 MOL     -0.329237
     33 C12        -5.6640   -2.7910    1.7710 c3        1 MOL      0.117255
     34 C13        -4.6190   -2.0620    0.8440 c         1 MOL      0.558432
     35 O7         -3.6300   -2.6910    0.5820 o         1 MOL     -0.627722
     36 O8         -4.8370   -0.9740    0.3390 o         1 MOL     -0.627722
     37 H13        -7.4810   -1.8840   -0.4270 hn        1 MOL      0.214528
     38 H14        -7.6910   -3.3860    1.9770 h1        1 MOL      0.007284
     39 H15        -5.5930   -3.8790    1.6920 hc        1 MOL     -0.037406
     40 H16        -5.6290   -2.6660    2.8490 hc        1 MOL     -0.037406
     41 N4         -7.9560   -0.8770    3.0700 n         1 MOL     -0.205802
     42 C14        -8.0110    0.4580    3.7670 c3        1 MOL     -0.407602
     43 C15        -6.5680    0.8720    4.2860 c         1 MOL      0.696316
     44 O9         -6.4760    1.9790    4.9160 o         1 MOL     -0.596676
     45 H17        -8.1310   -1.6360    3.7070 hn        1 MOL      0.242549
     46 H18        -8.6260    0.4170    4.6710 h1        1 MOL      0.172703
     47 H19        -8.2740    1.1160    2.9380 h1        1 MOL      0.172703
     48 N5         -5.5270    0.1580    3.9140 n         1 MOL     -0.611699
     49 C16        -4.1210    0.5860    4.2090 c3        1 MOL     -0.107502
     50 C17        -3.6130    1.5080    3.1150 c         1 MOL      0.564561
     51 O10        -3.8560    1.3200    1.8900 o         1 MOL     -0.514574
     52 C18        -3.2420   -0.7090    4.2430 c3        1 MOL     -0.094108
     53 C19        -3.6680   -1.7110    5.3110 c         1 MOL      0.602378
     54 N6         -3.1270   -2.8990    5.2180 n         1 MOL     -0.768357
     55 O11        -4.6080   -1.4990    6.1170 o         1 MOL     -0.565224
     56 H20        -5.7020   -0.7520    3.5160 hn        1 MOL      0.385053
     57 H21        -4.2070    1.0300    5.2000 h1        1 MOL      0.144142
     58 H22        -2.2210   -0.4110    4.4580 hc        1 MOL      0.064521
     59 H23        -3.3510   -1.2650    3.3100 hc        1 MOL      0.064521
     60 H24        -2.4390   -3.0160    4.4840 hn        1 MOL      0.388179
     61 H25        -3.6220   -3.6190    5.7060 hn        1 MOL      0.388179
     62 N7         -2.7920    2.4830    3.4800 n         1 MOL     -0.355755
     63 C20        -2.0460    3.2720    2.5140 c3        1 MOL      0.260201
     64 C21        -0.7090    3.9070    2.9360 c         1 MOL      0.339939
     65 O12        -0.4780    3.8620    4.1570 o         1 MOL     -0.501486
     66 H26        -2.5710    2.5340    4.4660 hn        1 MOL      0.245720
     67 H27        -2.7420    4.0440    2.1960 h1        1 MOL     -0.026574
     68 H28        -1.9700    2.7290    1.5740 h1        1 MOL     -0.026574
     69 N8          0.2340    4.2920    2.0390 n         1 MOL     -0.254782
     70 C22         0.2590    4.1770    0.5330 c3        1 MOL     -0.559989
     71 C23         1.6030    3.6890    0.1430 c         1 MOL      0.759292
     72 O13         2.6390    4.2340    0.5950 o         1 MOL     -0.529889
     73 C24         0.0190    5.5860   -0.0400 c3        1 MOL      0.556582
     74 C25         0.1200    5.6830   -1.5220 c3        1 MOL     -0.324038
     75 O14        -1.2620    6.0460    0.2540 oh        1 MOL     -0.641709
     76 H29         1.0310    4.7170    2.4820 hn        1 MOL      0.267466
     77 H30        -0.5220    3.4910    0.2140 h1        1 MOL      0.276366
     78 H31         0.6900    6.3440    0.3710 h1        1 MOL     -0.007753
     79 H32        -1.1540    6.6950    0.9540 ho        1 MOL      0.369595
     80 H33        -0.2120    6.6490   -1.8950 hc        1 MOL      0.084686
     81 H34         1.1200    5.4800   -1.8980 hc        1 MOL      0.084686
     82 H35        -0.5630    4.9290   -1.9210 hc        1 MOL      0.084686
     83 N9          1.7130    2.8380   -0.9200 n         1 MOL     -0.584293
     84 C26         2.9870    2.3140   -1.4810 c3        1 MOL     -0.018167
     85 C27         3.7130    3.4080   -2.2410 c         1 MOL      0.545107
     86 O15         3.2880    3.7970   -3.3410 o         1 MOL     -0.579141
     87 C28         2.7280    1.0430   -2.4070 c3        1 MOL      0.224919
     88 C29         2.0760   -0.1190   -1.6670 c3        1 MOL     -0.018554
     89 C30         4.1070    0.4890   -2.8390 c3        1 MOL     -0.210353
     90 C31         1.5430   -1.3510   -2.4670 c3        1 MOL     -0.290407
     91 H36         0.8640    2.3810   -1.2290 hn        1 MOL      0.256146
     92 H37         3.5150    1.9260   -0.6060 h1        1 MOL      0.075088
     93 H38         2.0780    1.2430   -3.2520 hc        1 MOL     -0.024005
     94 H39         1.1910    0.2730   -1.1710 hc        1 MOL      0.021603
     95 H40         2.7300   -0.4570   -0.8620 hc        1 MOL      0.021603
     96 H41         3.9440   -0.3630   -3.4940 hc        1 MOL      0.053988
     97 H42         4.6830    1.1960   -3.4250 hc        1 MOL      0.053988
     98 H43         4.6720    0.2510   -1.9300 hc        1 MOL      0.053988
     99 H44         0.9160   -1.9710   -1.8280 hc        1 MOL      0.075526
    100 H45         0.9870   -1.1480   -3.3880 hc        1 MOL      0.075526
    101 H46         2.4300   -1.9130   -2.7430 hc        1 MOL      0.075526
    102 N10         4.9090    3.9320   -1.8010 n         1 MOL     -0.525237
    103 C32         5.6980    3.5040   -0.6000 c3        1 MOL      0.364375
    104 C33         6.6530    2.2580   -0.8840 c         1 MOL      0.533253
    105 O16         6.9300    1.9170   -1.9900 o         1 MOL     -0.521706
    106 C34         6.5090    4.6630   -0.0610 c3        1 MOL     -0.230837
    107 C35         7.5150    5.3110   -1.0300 c         1 MOL      0.743545
    108 O17         8.2950    6.1460   -0.4910 o         1 MOL     -0.730389
    109 O18         7.5360    5.0880   -2.2610 o         1 MOL     -0.730389
    110 H47         5.3550    4.5680   -2.4470 hn        1 MOL      0.328363
    111 H48         5.0030    3.2640    0.2130 h1        1 MOL     -0.012780
    112 H49         7.0230    4.2050    0.7840 hc        1 MOL      0.010162
    113 H50         5.8790    5.4620    0.3330 hc        1 MOL      0.010162
    114 N11         7.2180    1.6650    0.1830 n         1 MOL     -0.718875
    115 C36         8.1230    0.5020    0.2690 c3        1 MOL      0.591053
    116 C37         8.0800   -0.0190    1.7420 c         1 MOL      0.229096
    117 O19         7.9170    0.7540    2.6810 o         1 MOL     -0.505241
    118 C38         9.5600    0.9100   -0.1710 c3        1 MOL     -0.253038
    119 C39        10.4520   -0.2860   -0.6930 ca        1 MOL      0.079442
    120 C40        11.4370   -0.7900    0.1450 ca        1 MOL     -0.174841
    121 C41        10.1690   -0.8790   -1.9390 ca        1 MOL     -0.174841
    122 C42        11.9860   -2.0370   -0.1680 ca        1 MOL     -0.051876
    123 C43        10.8420   -2.0640   -2.2370 ca        1 MOL     -0.051876
    124 C44        11.6760   -2.7150   -1.3610 ca        1 MOL     -0.166132
    125 H51         6.9130    2.0160    1.0670 hn        1 MOL      0.307614
    126 H52         7.6870   -0.3060   -0.3190 h1        1 MOL     -0.033818
    127 H53        10.0790    1.3670    0.6630 hc        1 MOL      0.091260
    128 H54         9.4790    1.6790   -0.9450 hc        1 MOL      0.091260
    129 H55        11.6220   -0.4150    1.1320 ha        1 MOL      0.130384
    130 H56         9.3640   -0.5560   -2.5800 ha        1 MOL      0.130384
    131 H57        12.7650   -2.3510    0.5100 ha        1 MOL      0.076006
    132 H58        10.8100   -2.5370   -3.2070 ha        1 MOL      0.076006
    133 H59        12.3070   -3.5070   -1.7470 ha        1 MOL      0.100613
    134 N12         8.3120   -1.3040    1.9720 n         1 MOL      0.056040
    135 C45         8.1770   -2.3670    0.9440 c3        1 MOL      0.098269
    136 C46         6.7580   -2.5080    0.4600 c         1 MOL      0.461324
    137 O20         6.0420   -1.4830    0.4060 o         1 MOL     -0.491973
    138 C47         8.6800   -3.5870    1.7310 c3        1 MOL     -0.228518
    139 C48         9.5130   -3.0830    2.8710 c3        1 MOL      0.172571
    140 C49         8.7740   -1.8420    3.2270 c3        1 MOL     -0.312268
    141 H60         8.8980   -2.2390    0.1460 h1        1 MOL     -0.029815
    142 H61         7.8200   -4.1080    2.1490 hc        1 MOL      0.071484
    143 H62         9.2460   -4.2660    1.0920 hc        1 MOL      0.071484
    144 H63         9.6240   -3.7830    3.7000 hc        1 MOL     -0.022852
    145 H64        10.4700   -2.8080    2.4260 hc        1 MOL     -0.022852
    146 H65         7.8220   -2.1260    3.6800 h1        1 MOL      0.131778
    147 H66         9.3020   -1.0960    3.8270 h1        1 MOL      0.131778
    148 N13         6.2860   -3.7110    0.0170 n         1 MOL     -0.466799
    149 C50         5.0310   -3.9290   -0.7290 c3        1 MOL      0.382652
    150 C51         4.9750   -5.2410   -1.6430 c         1 MOL      0.315052
    151 O21         4.2390   -6.2210   -1.4060 o         1 MOL     -0.497878
    152 C52         3.8550   -4.0200    0.2600 c3        1 MOL     -0.034474
    153 C53         3.7730   -4.9580    1.5180 c3        1 MOL     -0.236532
    154 C54         2.5550   -4.5970    2.3240 c         1 MOL      0.702950
    155 O22         1.3860   -5.0870    2.1480 o         1 MOL     -0.722774
    156 O23         2.7040   -3.8050    3.2950 o         1 MOL     -0.722774
    157 H67         6.8300   -4.5440    0.1340 hn        1 MOL      0.225836
    158 H68         4.8680   -3.0430   -1.3340 h1        1 MOL      0.003403
    159 H69         2.9490   -4.1810   -0.3320 hc        1 MOL      0.030731
    160 H70         3.7580   -2.9990    0.5950 hc        1 MOL      0.030731
    161 H71         4.6200   -4.8160    2.1930 hc        1 MOL      0.028794
    162 H72         3.7550   -5.9920    1.1750 hc        1 MOL      0.028794
    163 N14         5.7210   -5.3140   -2.7270 n         1 MOL     -0.310044
    164 C55         6.4700   -4.2780   -3.3440 c3        1 MOL     -0.082933
    165 H73         5.9760   -3.9740   -4.2670 h1        1 MOL      0.056014
    166 H74         6.5350   -3.4250   -2.6690 h1        1 MOL      0.056014
    167 H75         7.4720   -4.6400   -3.5710 h1        1 MOL      0.056014
    168 H76         5.7410   -6.2280   -3.1590 hn        1 MOL      0.265137
    169 Ca1        -5.4140    1.3990   -0.1540 Ca        1 MOL      1.660909
    170 O24        -4.9640    4.0420    1.0470 oh        1 MOL     -0.808641
    171 O25        -4.6900    0.1960   -2.4740 oh        1 MOL     -0.808641
    172 H77        -5.1210    4.6560    1.7750 ho        1 MOL      0.400687
    173 H78        -5.2360   -0.5200   -2.8110 ho        1 MOL      0.400687
    174 H79        -4.6400    4.6020    0.3420 ho        1 MOL      0.400687
    175 H80        -3.9340    0.2190   -3.0760 ho        1 MOL      0.400687
    176 O26        -2.6250    1.6260   -0.8010 oh        1 MOL     -0.808641
    177 H81        -2.2680    0.7600   -0.6050 ho        1 MOL      0.400687
    178 H82        -1.9860    2.0150   -1.3980 ho        1 MOL      0.400687
    179 O27        -4.9250    3.3540   -1.8640 oh        1 MOL     -0.808641
    180 H83        -4.8080    4.3050   -1.8610 ho        1 MOL      0.400687
    181 H84        -5.0100    3.1330   -2.7920 ho        1 MOL      0.400687
    182 O28        -7.5930    2.5560    0.6490 oh        1 MOL     -0.808641
    183 H85        -8.3890    2.0790    0.4160 ho        1 MOL      0.400687
    184 H86        -7.9130    3.3600    1.0600 ho        1 MOL      0.400687
@<TRIPOS>BOND
     1    1    2 1   
     2    1    4 1   
     3    1    5 1   
     4    1    6 1   
     5    2    3 2   
     6    2    7 1   
     7    7    8 1   
     8    7   15 1   
     9    8    9 1   
    10    8   11 1   
    11    8   16 1   
    12    9   10 2   
    13    9   19 1   
    14   11   12 1   
    15   11   17 1   
    16   11   18 1   
    17   12   13 1   
    18   12   14 1   
    19   19   20 1   
    20   19   24 1   
    21   20   21 1   
    22   20   23 1   
    23   20   25 1   
    24   21   22 2   
    25   21   29 1   
    26   23   26 1   
    27   23   27 1   
    28   23   28 1   
    29   29   30 1   
    30   29   37 1   
    31   30   31 1   
    32   30   33 1   
    33   30   38 1   
    34   31   32 2   
    35   31   41 1   
    36   33   34 1   
    37   33   39 1   
    38   33   40 1   
    39   34   35 1   
    40   34   36 1   
    41   41   42 1   
    42   41   45 1   
    43   42   43 1   
    44   42   46 1   
    45   42   47 1   
    46   43   44 2   
    47   43   48 1   
    48   48   49 1   
    49   48   56 1   
    50   49   50 1   
    51   49   52 1   
    52   49   57 1   
    53   50   51 2   
    54   50   62 1   
    55   52   53 1   
    56   52   58 1   
    57   52   59 1   
    58   53   54 1   
    59   53   55 2   
    60   54   60 1   
    61   54   61 1   
    62   62   63 1   
    63   62   66 1   
    64   63   64 1   
    65   63   67 1   
    66   63   68 1   
    67   64   65 2   
    68   64   69 1   
    69   69   70 1   
    70   69   76 1   
    71   70   71 1   
    72   70   73 1   
    73   70   77 1   
    74   71   72 2   
    75   71   83 1   
    76   73   74 1   
    77   73   75 1   
    78   73   78 1   
    79   74   80 1   
    80   74   81 1   
    81   74   82 1   
    82   75   79 1   
    83   83   84 1   
    84   83   91 1   
    85   84   85 1   
    86   84   87 1   
    87   84   92 1   
    88   85   86 2   
    89   85  102 1   
    90   87   88 1   
    91   87   89 1   
    92   87   93 1   
    93   88   90 1   
    94   88   94 1   
    95   88   95 1   
    96   89   96 1   
    97   89   97 1   
    98   89   98 1   
    99   90   99 1   
   100   90  100 1   
   101   90  101 1   
   102  102  103 1   
   103  102  110 1   
   104  103  104 1   
   105  103  106 1   
   106  103  111 1   
   107  104  105 2   
   108  104  114 1   
   109  106  107 1   
   110  106  112 1   
   111  106  113 1   
   112  107  108 1   
   113  107  109 1   
   114  114  115 1   
   115  114  125 1   
   116  115  116 1   
   117  115  118 1   
   118  115  126 1   
   119  116  117 2   
   120  116  134 1   
   121  118  119 1   
   122  118  127 1   
   123  118  128 1   
   124  119  120 ar  
   125  119  121 ar  
   126  120  122 ar  
   127  120  129 1   
   128  121  123 ar  
   129  121  130 1   
   130  122  124 ar  
   131  122  131 1   
   132  123  124 ar  
   133  123  132 1   
   134  124  133 1   
   135  134  135 1   
   136  134  140 1   
   137  135  136 1   
   138  135  138 1   
   139  135  141 1   
   140  136  137 2   
   141  136  148 1   
   142  138  139 1   
   143  138  142 1   
   144  138  143 1   
   145  139  140 1   
   146  139  144 1   
   147  139  145 1   
   148  140  146 1   
   149  140  147 1   
   150  148  149 1   
   151  148  157 1   
   152  149  150 1   
   153  149  152 1   
   154  149  158 1   
   155  150  151 2   
   156  150  163 1   
   157  152  153 1   
   158  152  159 1   
   159  152  160 1   
   160  153  154 1   
   161  153  161 1   
   162  153  162 1   
   163  154  155 1   
   164  154  156 1   
   165  163  164 1   
   166  163  168 1   
   167  164  165 1   
   168  164  166 1   
   169  164  167 1   
   170  170  172 1   
   171  170  174 1   
   172  171  173 1   
   173  171  175 1   
   174  176  177 1   
   175  176  178 1   
   176  179  180 1   
   177  179  181 1   
   178  182  183 1   
   179  182  184 1   
@<TRIPOS>SUBSTRUCTURE
     1 MOL         1 TEMP              0 ****  ****    0 ROOT
