@<TRIPOS>MOLECULE
MOL
  192   187     1     0     0
SMALL
resp


@<TRIPOS>ATOM
      1 C1         11.9550    5.1330   -2.6280 c3        1 MOL     -0.476400
      2 C2         11.7340    3.7300   -1.9800 c         1 MOL      0.602079
      3 O1         12.3620    2.7120   -2.2300 o         1 MOL     -0.597499
      4 H1         12.9780    5.2040   -3.0000 hc        1 MOL      0.134228
      5 H2         11.2580    5.2660   -3.4560 hc        1 MOL      0.134228
      6 H3         11.7850    5.9090   -1.8820 hc        1 MOL      0.134228
      7 N1         10.8840    3.7180   -0.9440 n         1 MOL     -0.080904
      8 C3         10.5590    2.6140   -0.1570 c3        1 MOL     -0.211558
      9 C4          9.2000    1.9970   -0.6600 c         1 MOL      0.423616
     10 O2          8.2180    2.7070   -0.9770 o         1 MOL     -0.625367
     11 C5         10.4130    3.0950    1.2860 c3        1 MOL     -0.171611
     12 C6          9.9940    4.5550    1.4830 c         1 MOL      0.698084
     13 O3          9.0360    4.9870    0.8510 o         1 MOL     -0.674637
     14 O4         10.6420    5.3290    2.2230 o         1 MOL     -0.674637
     15 H4         10.1960    4.4550   -0.8120 hn        1 MOL      0.058868
     16 H5         11.2890    1.8150   -0.2520 h1        1 MOL      0.156627
     17 H6         11.3500    2.8510    1.7880 hc        1 MOL      0.080264
     18 H7          9.7250    2.4090    1.7890 hc        1 MOL      0.080264
     19 N2          9.1140    0.6510   -0.7980 n         1 MOL     -0.194929
     20 C7          7.9660   -0.0890   -1.3280 c3        1 MOL     -0.116443
     21 C8          7.1820   -0.5160   -0.0510 c         1 MOL      0.717377
     22 O5          7.6920   -1.1280    0.8850 o         1 MOL     -0.553764
     23 C9          8.4890   -1.1840   -2.3130 c3        1 MOL     -0.277813
     24 C10         7.2770   -2.0750   -2.8050 c3        1 MOL     -0.000684
     25 C11         7.6980   -3.1220   -3.8710 c3        1 MOL      0.122767
     26 C12         6.4960   -3.9520   -4.2290 c3        1 MOL      0.080377
     27 N3          6.6550   -4.8780   -5.4160 n4        1 MOL     -0.543269
     28 H8          9.9310    0.0870   -0.6420 hn        1 MOL      0.219146
     29 H9          7.3990    0.5910   -1.9560 h1        1 MOL      0.173807
     30 H10         9.2560   -1.7680   -1.8110 hc        1 MOL      0.114710
     31 H11         8.8970   -0.6610   -3.1740 hc        1 MOL      0.114710
     32 H12         6.5560   -1.4450   -3.3120 hc        1 MOL      0.029621
     33 H13         6.9330   -2.6350   -1.9330 hc        1 MOL      0.029621
     34 H14         8.5460   -3.7200   -3.5260 hc        1 MOL     -0.006676
     35 H15         8.0960   -2.5060   -4.6700 hc        1 MOL     -0.006676
     36 H16         5.6810   -3.2700   -4.4430 hx        1 MOL      0.073846
     37 H17         6.1600   -4.5350   -3.3740 hx        1 MOL      0.073846
     38 H18         6.8340   -4.3640   -6.2700 hn        1 MOL      0.373201
     39 H19         7.3550   -5.5940   -5.2830 hn        1 MOL      0.373201
     40 H20         5.7980   -5.3990   -5.5180 hn        1 MOL      0.373201
     41 N4          6.0300    0.0640    0.0900 n         1 MOL     -0.605802
     42 C13         5.1380   -0.2000    1.2280 c3        1 MOL      0.240504
     43 C14         3.7140   -0.0770    0.8360 c         1 MOL      0.300793
     44 O6          3.3800    0.5810   -0.1680 o         1 MOL     -0.557234
     45 C15         5.4070    0.8380    2.3600 c3        1 MOL      0.025116
     46 C16         5.6960    2.2820    1.9050 c         1 MOL      0.721656
     47 O7          4.8510    2.9710    1.3050 o         1 MOL     -0.780099
     48 O8          6.8660    2.6930    1.9560 o         1 MOL     -0.780099
     49 H21         5.7400    0.8300   -0.5050 hn        1 MOL      0.222937
     50 H22         5.3500   -1.1640    1.7030 h1        1 MOL      0.067813
     51 H23         6.2880    0.5070    2.9030 hc        1 MOL      0.009895
     52 H24         4.6290    0.8980    3.1150 hc        1 MOL      0.009895
     53 N5          2.6920   -0.5380    1.5760 n         1 MOL     -0.280804
     54 C17         2.8360   -1.2320    2.8250 c3        1 MOL     -0.067012
     55 C18         3.1770   -2.7390    2.6030 c         1 MOL      0.471567
     56 O9          3.6700   -3.0990    1.4650 o         1 MOL     -0.552936
     57 H25         1.7810   -0.2470    1.2550 hn        1 MOL      0.303699
     58 H26         1.9350   -1.1470    3.4300 h1        1 MOL      0.082677
     59 H27         3.5730   -0.8060    3.5060 h1        1 MOL      0.082677
     60 N6          3.0710   -3.5630    3.6060 n         1 MOL     -0.266603
     61 C19         3.3180   -5.0180    3.6410 c3        1 MOL      0.093590
     62 C20         2.3620   -5.8470    2.7740 c         1 MOL      0.409715
     63 O10         2.8110   -6.7650    2.0610 o         1 MOL     -0.543220
     64 C21         3.4060   -5.5880    5.1010 c3        1 MOL     -0.461298
     65 C22         2.1660   -5.1390    5.9590 c         1 MOL      0.774275
     66 O11         1.1090   -5.7520    5.8530 o         1 MOL     -0.715462
     67 O12         2.2130   -4.0300    6.5940 o         1 MOL     -0.715462
     68 H28         2.5400   -3.2070    4.3880 hn        1 MOL      0.190848
     69 H29         4.2950   -5.1740    3.1920 h1        1 MOL      0.087100
     70 H30         4.3390   -5.2360    5.5500 hc        1 MOL      0.122364
     71 H31         3.4010   -6.6750    4.9780 hc        1 MOL      0.122364
     72 N7          1.0920   -5.5040    2.7050 n         1 MOL     -0.124881
     73 C23         0.1060   -6.0590    1.8140 c3        1 MOL     -0.212403
     74 C24        -0.0320   -5.2890    0.5160 c         1 MOL      0.520003
     75 O13        -0.9130   -5.5060   -0.2790 o         1 MOL     -0.577697
     76 H32         0.6990   -4.7130    3.1940 hn        1 MOL      0.259267
     77 H33        -0.8340   -6.1390    2.3820 h1        1 MOL      0.123828
     78 H34         0.3490   -7.0980    1.5490 h1        1 MOL      0.123828
     79 N8          0.9130   -4.3710    0.2620 n         1 MOL     -0.128079
     80 C25         1.0010   -3.5830   -0.9880 c3        1 MOL      0.046226
     81 C26         0.4380   -2.1990   -0.7010 c         1 MOL      0.350669
     82 O14         0.2010   -1.9060    0.4610 o         1 MOL     -0.463789
     83 C27         2.4680   -3.4380   -1.4930 c3        1 MOL      0.067788
     84 C28         3.3500   -4.7130   -1.4530 c3        1 MOL     -0.345532
     85 O15         2.3140   -3.1720   -2.8800 oh        1 MOL     -0.640022
     86 H35         1.5290   -4.1520    1.0300 hn        1 MOL     -0.008011
     87 H36         0.4190   -3.9310   -1.8450 h1        1 MOL      0.055236
     88 H37         2.9340   -2.6860   -0.8490 h1        1 MOL      0.200958
     89 H38         1.8980   -3.9510   -3.2630 ho        1 MOL      0.401097
     90 H39         2.8840   -5.5910   -1.9000 hc        1 MOL      0.104504
     91 H40         4.3030   -4.5810   -1.9780 hc        1 MOL      0.104504
     92 H41         3.4940   -5.0020   -0.4160 hc        1 MOL      0.104504
     93 N9          0.2150   -1.3120   -1.7030 n         1 MOL     -0.264053
     94 C29        -0.4360   -0.0370   -1.5390 c3        1 MOL     -0.307284
     95 C30        -1.8710   -0.1510   -1.0090 c         1 MOL      0.606304
     96 O16        -2.2750    0.6950   -0.1710 o         1 MOL     -0.535250
     97 C31        -0.3180    0.7880   -2.8440 c3        1 MOL      0.249823
     98 C32         1.2280    0.8830   -3.1690 c3        1 MOL     -0.097395
     99 C33        -0.8760    2.2530   -2.6870 c3        1 MOL     -0.290424
    100 C34         1.4170    1.5050   -4.5820 c3        1 MOL     -0.269833
    101 H42         0.3650   -1.7550   -2.6050 hn        1 MOL      0.246637
    102 H43         0.0680    0.6010   -0.8070 h1        1 MOL      0.149235
    103 H44        -0.8920    0.2630   -3.6100 hc        1 MOL      0.005520
    104 H45         1.6810   -0.0930   -3.2940 hc        1 MOL      0.075269
    105 H46         1.7560    1.4510   -2.4140 hc        1 MOL      0.075269
    106 H47        -0.4090    2.8120   -1.8780 hc        1 MOL      0.086832
    107 H48        -0.8780    2.7140   -3.6810 hc        1 MOL      0.086832
    108 H49        -1.9440    2.1870   -2.4930 hc        1 MOL      0.086832
    109 H50         2.4560    1.4430   -4.9000 hc        1 MOL      0.059713
    110 H51         0.7900    1.0410   -5.3350 hc        1 MOL      0.059713
    111 H52         1.2350    2.5860   -4.5440 hc        1 MOL      0.059713
    112 N10        -2.6900   -1.1410   -1.4540 n         1 MOL     -0.442004
    113 C35        -4.0380   -1.3270   -0.7960 c3        1 MOL     -0.184251
    114 C36        -5.1670   -1.4030   -1.8580 c         1 MOL      0.748128
    115 O17        -4.7770   -1.5550   -2.9620 o         1 MOL     -0.537748
    116 C37        -3.9390   -2.5620    0.1680 c3        1 MOL      0.466495
    117 C38        -3.1930   -2.2100    1.4980 c3        1 MOL     -0.457080
    118 O18        -5.2840   -2.9660    0.6150 oh        1 MOL     -0.666582
    119 H53        -2.4050   -1.6430   -2.2780 hn        1 MOL      0.277638
    120 H54        -4.2800   -0.5490   -0.0700 h1        1 MOL      0.136612
    121 H55        -3.5840   -3.4890   -0.2900 h1        1 MOL     -0.016440
    122 H56        -5.1170   -3.9150    0.6880 ho        1 MOL      0.386197
    123 H57        -2.2300   -1.8350    1.1730 hc        1 MOL      0.137023
    124 H58        -3.7180   -1.4030    2.0240 hc        1 MOL      0.137023
    125 H59        -3.0980   -3.0870    2.1360 hc        1 MOL      0.137023
    126 N11        -6.4900   -1.3460   -1.5310 n         1 MOL     -0.754377
    127 C39        -7.6400   -1.7340   -2.3060 c3        1 MOL      0.053118
    128 C40        -8.7250   -0.7350   -2.1300 c         1 MOL      0.724295
    129 O19        -9.3440   -0.2960   -3.0920 o         1 MOL     -0.618023
    130 C41        -7.9950   -3.1100   -1.8900 c3        1 MOL      0.353476
    131 C42        -8.9680   -3.7330   -2.8750 c3        1 MOL     -0.271987
    132 O20        -8.6150   -3.0900   -0.6400 oh        1 MOL     -0.612567
    133 H60        -6.5740   -1.2180   -0.5300 hn        1 MOL      0.355614
    134 H61        -7.3090   -1.6570   -3.3490 h1        1 MOL      0.093659
    135 H62        -7.0740   -3.6990   -1.8080 h1        1 MOL      0.010852
    136 H63        -8.1470   -3.6980   -0.0540 ho        1 MOL      0.397557
    137 H64        -9.8770   -3.1450   -3.0210 hc        1 MOL      0.060094
    138 H65        -8.4550   -3.8780   -3.8210 hc        1 MOL      0.060094
    139 H66        -9.2500   -4.7050   -2.4700 hc        1 MOL      0.060094
    140 N12        -9.0440   -0.2690   -0.9130 n         1 MOL     -0.433729
    141 C43       -10.1310    0.6680   -0.5590 c3        1 MOL     -0.134149
    142 C44        -9.7610    1.5000    0.6620 c         1 MOL      0.605454
    143 O21        -9.3330    0.9690    1.6780 o         1 MOL     -0.501782
    144 C45       -11.4670   -0.0330   -0.3020 c3        1 MOL     -0.191761
    145 C46       -12.1960   -0.4660   -1.6150 c3        1 MOL      0.036905
    146 C47       -13.5600   -0.9070   -1.1270 c3        1 MOL     -0.227029
    147 C48       -14.6130    0.1860   -1.2110 c3        1 MOL      0.082421
    148 N13       -15.9190   -0.1790   -0.7110 n4        1 MOL     -0.273430
    149 H67        -8.5320   -0.5780   -0.0980 hn        1 MOL      0.260329
    150 H68       -10.2480    1.3060   -1.4280 h1        1 MOL      0.122572
    151 H69       -12.0460    0.7150    0.2460 hc        1 MOL      0.099641
    152 H70       -11.2950   -0.8280    0.4200 hc        1 MOL      0.099641
    153 H71       -11.7070   -1.2920   -2.1330 hc        1 MOL      0.068958
    154 H72       -12.3210    0.2860   -2.3980 hc        1 MOL      0.068958
    155 H73       -13.4990   -1.4770   -0.2020 hc        1 MOL      0.082718
    156 H74       -13.9890   -1.6750   -1.7650 hc        1 MOL      0.082718
    157 H75       -14.6260    0.6780   -2.1820 hx        1 MOL      0.062132
    158 H76       -14.2840    1.0280   -0.6010 hx        1 MOL      0.062132
    159 H77       -15.8920   -0.3740    0.2790 hn        1 MOL      0.257611
    160 H78       -16.5770    0.5680   -0.8680 hn        1 MOL      0.257611
    161 H79       -16.2350   -1.0320   -1.1380 hn        1 MOL      0.257611
    162 N14        -9.7670    2.8420    0.6000 n         1 MOL     -0.505013
    163 C49        -9.2830    3.7140    1.6770 c3        1 MOL      0.159972
    164 C50        -7.7750    3.6570    1.9980 c         1 MOL      0.414397
    165 O22        -7.4880    3.2260    3.0720 o         1 MOL     -0.527879
    166 C51        -9.7940    5.1130    1.4460 c3        1 MOL      0.089042
    167 C52       -11.3070    5.2990    1.4970 c3        1 MOL     -0.236093
    168 C53       -11.5460    6.7890    1.6870 c         1 MOL      0.657818
    169 O23       -11.3930    7.2360    2.8770 o         1 MOL     -0.638238
    170 O24       -11.6220    7.5850    0.7410 o         1 MOL     -0.638238
    171 H80       -10.2200    3.2240   -0.2170 hn        1 MOL      0.269743
    172 H81        -9.7350    3.3750    2.6160 h1        1 MOL      0.059908
    173 H82        -9.4680    5.5110    0.4880 hc        1 MOL      0.027692
    174 H83        -9.4300    5.7560    2.2470 hc        1 MOL      0.027692
    175 H84       -11.7030    4.8280    2.4000 hc        1 MOL      0.006693
    176 H85       -11.7840    5.0160    0.5640 hc        1 MOL      0.006693
    177 N15        -6.8150    3.9620    1.1600 n         1 MOL     -0.357953
    178 C54        -6.8980    4.6330   -0.1520 c3        1 MOL      0.013428
    179 H86        -5.9350    4.5610   -0.6580 h1        1 MOL      0.033830
    180 H87        -7.6640    4.1510   -0.7610 h1        1 MOL      0.033830
    181 H88        -7.1540    5.6830   -0.0080 h1        1 MOL      0.033830
    182 H89        -5.9190    3.7150    1.5730 hn        1 MOL      0.290041
    183 Ca1         6.5880    4.5290    0.1250 Ca        1 MOL      1.768354
    184 O25         4.2980    5.6890   -0.1250 oh        1 MOL     -0.849875
    185 H90         3.5800    5.1080   -0.3790 ho        1 MOL      0.427110
    186 H91         3.9560    6.1720    0.6260 ho        1 MOL      0.427110
    187 O26         4.9230    3.1350   -1.4090 oh        1 MOL     -0.849875
    188 H92         4.8580    2.3210   -1.9120 ho        1 MOL      0.427110
    189 H93         4.2740    3.0360   -0.7100 ho        1 MOL      0.427110
    190 O27         6.5210    5.9220    2.6590 oh        1 MOL     -0.849875
    191 H94         5.9500    5.5670    3.3470 ho        1 MOL      0.427110
    192 H95         7.1840    6.4110    3.1430 ho        1 MOL      0.427110
@<TRIPOS>BOND
     1    1    2 1   
     2    1    4 1   
     3    1    5 1   
     4    1    6 1   
     5    2    3 2   
     6    2    7 1   
     7    7    8 1   
     8    7   15 1   
     9    8    9 1   
    10    8   11 1   
    11    8   16 1   
    12    9   10 2   
    13    9   19 1   
    14   11   12 1   
    15   11   17 1   
    16   11   18 1   
    17   12   13 1   
    18   12   14 1   
    19   19   20 1   
    20   19   28 1   
    21   20   21 1   
    22   20   23 1   
    23   20   29 1   
    24   21   22 2   
    25   21   41 1   
    26   23   24 1   
    27   23   30 1   
    28   23   31 1   
    29   24   25 1   
    30   24   32 1   
    31   24   33 1   
    32   25   26 1   
    33   25   34 1   
    34   25   35 1   
    35   26   27 1   
    36   26   36 1   
    37   26   37 1   
    38   27   38 1   
    39   27   39 1   
    40   27   40 1   
    41   41   42 1   
    42   41   49 1   
    43   42   43 1   
    44   42   45 1   
    45   42   50 1   
    46   43   44 2   
    47   43   53 1   
    48   45   46 1   
    49   45   51 1   
    50   45   52 1   
    51   46   47 1   
    52   46   48 1   
    53   53   54 1   
    54   53   57 1   
    55   54   55 1   
    56   54   58 1   
    57   54   59 1   
    58   55   56 2   
    59   55   60 1   
    60   60   61 1   
    61   60   68 1   
    62   61   62 1   
    63   61   64 1   
    64   61   69 1   
    65   62   63 2   
    66   62   72 1   
    67   64   65 1   
    68   64   70 1   
    69   64   71 1   
    70   65   66 1   
    71   65   67 1   
    72   72   73 1   
    73   72   76 1   
    74   73   74 1   
    75   73   77 1   
    76   73   78 1   
    77   74   75 2   
    78   74   79 1   
    79   79   80 1   
    80   79   86 1   
    81   80   81 1   
    82   80   83 1   
    83   80   87 1   
    84   81   82 2   
    85   81   93 1   
    86   83   84 1   
    87   83   85 1   
    88   83   88 1   
    89   84   90 1   
    90   84   91 1   
    91   84   92 1   
    92   85   89 1   
    93   93   94 1   
    94   93  101 1   
    95   94   95 1   
    96   94   97 1   
    97   94  102 1   
    98   95   96 2   
    99   95  112 1   
   100   97   98 1   
   101   97   99 1   
   102   97  103 1   
   103   98  100 1   
   104   98  104 1   
   105   98  105 1   
   106   99  106 1   
   107   99  107 1   
   108   99  108 1   
   109  100  109 1   
   110  100  110 1   
   111  100  111 1   
   112  112  113 1   
   113  112  119 1   
   114  113  114 1   
   115  113  116 1   
   116  113  120 1   
   117  114  115 2   
   118  114  126 1   
   119  116  117 1   
   120  116  118 1   
   121  116  121 1   
   122  117  123 1   
   123  117  124 1   
   124  117  125 1   
   125  118  122 1   
   126  126  127 1   
   127  126  133 1   
   128  127  128 1   
   129  127  130 1   
   130  127  134 1   
   131  128  129 2   
   132  128  140 1   
   133  130  131 1   
   134  130  132 1   
   135  130  135 1   
   136  131  137 1   
   137  131  138 1   
   138  131  139 1   
   139  132  136 1   
   140  140  141 1   
   141  140  149 1   
   142  141  142 1   
   143  141  144 1   
   144  141  150 1   
   145  142  143 2   
   146  142  162 1   
   147  144  145 1   
   148  144  151 1   
   149  144  152 1   
   150  145  146 1   
   151  145  153 1   
   152  145  154 1   
   153  146  147 1   
   154  146  155 1   
   155  146  156 1   
   156  147  148 1   
   157  147  157 1   
   158  147  158 1   
   159  148  159 1   
   160  148  160 1   
   161  148  161 1   
   162  162  163 1   
   163  162  171 1   
   164  163  164 1   
   165  163  166 1   
   166  163  172 1   
   167  164  165 2   
   168  164  177 1   
   169  166  167 1   
   170  166  173 1   
   171  166  174 1   
   172  167  168 1   
   173  167  175 1   
   174  167  176 1   
   175  168  169 1   
   176  168  170 1   
   177  177  178 1   
   178  177  182 1   
   179  178  179 1   
   180  178  180 1   
   181  178  181 1   
   182  184  185 1   
   183  184  186 1   
   184  187  188 1   
   185  187  189 1   
   186  190  191 1   
   187  190  192 1   
@<TRIPOS>SUBSTRUCTURE
     1 MOL         1 TEMP              0 ****  ****    0 ROOT
