@<TRIPOS>MOLECULE
MOL
  201   193     1     0     0
SMALL
resp


@<TRIPOS>ATOM
      1 C1         -3.1060    5.0410    2.4790 c3        1 MOL     -0.500007
      2 C2         -4.2150    4.0480    2.9240 c         1 MOL      0.686938
      3 O1         -4.0540    3.4220    3.9740 o         1 MOL     -0.602631
      4 H1         -2.9920    5.8200    3.2330 hc        1 MOL      0.133501
      5 H2         -2.1640    4.5060    2.3630 hc        1 MOL      0.133501
      6 H3         -3.3850    5.4960    1.5280 hc        1 MOL      0.133501
      7 N1         -5.3270    4.0130    2.1640 n         1 MOL     -0.470770
      8 C3         -6.4490    3.0720    2.2140 c3        1 MOL      0.180002
      9 C4         -6.1760    1.6590    1.7550 c         1 MOL      0.504957
     10 O2         -5.1780    1.4260    1.0460 o         1 MOL     -0.555309
     11 C5         -7.5380    3.6290    1.2990 c3        1 MOL     -0.250781
     12 C6         -7.0390    4.0760   -0.0990 c         1 MOL      0.647447
     13 O3         -6.5770    5.2310   -0.3480 o         1 MOL     -0.655217
     14 O4         -6.9910    3.1540   -0.9680 o         1 MOL     -0.655217
     15 H4         -5.3270    4.7390    1.4650 hn        1 MOL      0.295713
     16 H5         -6.8510    2.9910    3.2170 h1        1 MOL      0.032443
     17 H6         -7.9790    4.4920    1.8190 hc        1 MOL      0.061907
     18 H7         -8.2850    2.8940    1.0000 hc        1 MOL      0.061907
     19 N2         -7.0900    0.7550    2.0020 n         1 MOL     -0.648753
     20 C7         -6.9440   -0.7360    1.7840 c3        1 MOL      0.718010
     21 C8         -8.0590   -1.4230    0.9370 c         1 MOL      0.146344
     22 O5         -8.4960   -2.5820    1.1240 o         1 MOL     -0.507307
     23 C9         -6.6250   -1.3550    3.1390 c3        1 MOL     -0.405583
     24 C10        -5.7870   -2.5840    3.0360 c3        1 MOL      0.316626
     25 C11        -5.7400   -3.3420    4.3470 c3        1 MOL     -0.162367
     26 C12        -4.8480   -4.5470    4.3090 c3        1 MOL     -0.075047
     27 N3         -3.3470   -4.3900    4.2080 n4        1 MOL     -0.236348
     28 H8         -7.9190    1.0320    2.5110 hn        1 MOL      0.312007
     29 H9         -6.0030   -0.7950    1.2380 h1        1 MOL     -0.097346
     30 H10        -7.5770   -1.6670    3.5830 hc        1 MOL      0.080814
     31 H11        -6.0910   -0.7110    3.8340 hc        1 MOL      0.080814
     32 H12        -4.7960   -2.2460    2.7360 hc        1 MOL     -0.062693
     33 H13        -6.0430   -3.2070    2.1780 hc        1 MOL     -0.062693
     34 H14        -6.7590   -3.6550    4.6080 hc        1 MOL      0.078014
     35 H15        -5.3700   -2.6370    5.0890 hc        1 MOL      0.078014
     36 H16        -5.1990   -5.0840    3.4250 hx        1 MOL      0.102551
     37 H17        -4.9180   -5.1970    5.1890 hx        1 MOL      0.102551
     38 H18        -3.1430   -4.2070    3.2320 hn        1 MOL      0.294653
     39 H19        -2.9570   -3.6590    4.7890 hn        1 MOL      0.294653
     40 H20        -2.8640   -5.2520    4.3890 hn        1 MOL      0.294653
     41 N4         -8.5380   -0.6550   -0.0090 n         1 MOL     -0.079220
     42 C13        -9.5190   -1.1620   -1.0400 c3        1 MOL      0.292822
     43 C14        -8.7730   -1.3250   -2.3750 c         1 MOL      0.442645
     44 O6         -8.2020   -0.3350   -2.9440 o         1 MOL     -0.614453
     45 C15       -10.8010   -0.2920   -1.0720 c3        1 MOL     -0.326719
     46 C16       -10.6540    1.1890   -1.1110 c         1 MOL      0.797926
     47 O7         -9.5410    1.7500   -1.2190 o         1 MOL     -0.702660
     48 O8        -11.6690    1.8160   -1.1940 o         1 MOL     -0.702660
     49 H21        -8.1280    0.2460   -0.2140 hn        1 MOL     -0.044864
     50 H22        -9.8870   -2.1630   -0.8260 h1        1 MOL      0.022516
     51 H23       -11.3630   -0.4800   -0.1520 hc        1 MOL      0.073085
     52 H24       -11.3400   -0.6150   -1.9660 hc        1 MOL      0.073085
     53 N5         -8.7230   -2.4710   -3.1100 n         1 MOL     -0.435421
     54 C17        -8.9710   -3.8500   -2.6440 c3        1 MOL     -0.095735
     55 C18        -7.6730   -4.2930   -1.8500 c         1 MOL      0.578423
     56 O9         -7.5890   -5.3400   -1.2910 o         1 MOL     -0.559940
     57 H25        -8.2360   -2.4050   -3.9900 hn        1 MOL      0.328987
     58 H26        -9.2230   -4.5480   -3.4440 h1        1 MOL      0.100111
     59 H27        -9.8280   -3.9690   -1.9850 h1        1 MOL      0.100111
     60 N6         -6.5750   -3.5560   -1.9710 n         1 MOL     -0.400862
     61 C19        -5.2830   -3.8210   -1.3360 c3        1 MOL      0.077432
     62 C20        -4.6450   -2.4830   -0.9850 c         1 MOL      0.229724
     63 O10        -4.9200   -1.4870   -1.7170 o         1 MOL     -0.392293
     64 C21        -4.4370   -4.7100   -2.2550 c3        1 MOL     -0.226747
     65 C22        -4.1090   -4.2410   -3.6760 c         1 MOL      0.721940
     66 O11        -5.0220   -3.9850   -4.5150 o         1 MOL     -0.693158
     67 O12        -2.9060   -4.2090   -4.0500 o         1 MOL     -0.693158
     68 H28        -6.5260   -2.8250   -2.6630 hn        1 MOL      0.257911
     69 H29        -5.4670   -4.3460   -0.3950 h1        1 MOL      0.053167
     70 H30        -4.9060   -5.6910   -2.2950 hc        1 MOL      0.049528
     71 H31        -3.4820   -4.8300   -1.7380 hc        1 MOL      0.049528
     72 N7         -3.8020   -2.4450    0.0300 n         1 MOL      0.146516
     73 C23        -3.0270   -1.3290    0.4450 c3        1 MOL     -0.692932
     74 C24        -2.0990   -1.6380    1.6430 c         1 MOL      0.836045
     75 O13        -1.9530   -2.7640    2.1300 o         1 MOL     -0.657734
     76 H32        -3.5590   -3.3260    0.4450 hn        1 MOL      0.128754
     77 H33        -3.6230   -0.5540    0.9410 h1        1 MOL      0.242980
     78 H34        -2.5310   -0.9400   -0.4430 h1        1 MOL      0.242980
     79 N8         -1.3610   -0.5970    1.9990 n         1 MOL     -0.511823
     80 C25        -0.3710   -0.5010    3.0280 c3        1 MOL      0.002483
     81 C26         0.6840    0.5760    2.7320 c         1 MOL      0.422715
     82 O14         0.6810    1.1690    1.5940 o         1 MOL     -0.450384
     83 C27        -1.0760   -0.1490    4.3750 c3        1 MOL      0.221921
     84 C28        -1.7170    1.1590    4.2780 c3        1 MOL     -0.506215
     85 O15        -2.0560   -0.9990    4.9040 oh        1 MOL     -0.485544
     86 H35        -1.5700    0.2730    1.5150 hn        1 MOL      0.321484
     87 H36         0.1030   -1.4580    3.2140 h1        1 MOL      0.063238
     88 H37        -0.2260   -0.0160    5.0470 h1        1 MOL     -0.003571
     89 H38        -1.6190   -1.8560    4.9850 ho        1 MOL      0.303031
     90 H39        -1.3860    1.8080    3.4650 hc        1 MOL      0.166668
     91 H40        -2.7990    1.1250    4.1570 hc        1 MOL      0.166668
     92 H41        -1.5940    1.6140    5.2630 hc        1 MOL      0.166668
     93 N9          1.6540    0.7670    3.6440 n         1 MOL     -0.273017
     94 C29         2.6590    1.7720    3.4150 c3        1 MOL     -0.024304
     95 C30         3.6870    1.3940    2.3400 c         1 MOL      0.415376
     96 O16         4.1260    2.3050    1.6260 o         1 MOL     -0.487490
     97 C31         3.4050    2.2030    4.7040 c3        1 MOL      0.167305
     98 C32         2.4680    2.6370    5.8620 c3        1 MOL     -0.235019
     99 C33         4.4170    3.3570    4.4090 c3        1 MOL     -0.497122
    100 C34         1.4930    3.7130    5.4870 c3        1 MOL     -0.036199
    101 H42         1.7560    0.1120    4.4090 hn        1 MOL      0.255216
    102 H43         2.1880    2.7010    3.1180 h1        1 MOL      0.094580
    103 H44         3.9020    1.3110    5.0840 hc        1 MOL     -0.007816
    104 H45         3.0930    2.9990    6.6750 hc        1 MOL      0.064099
    105 H46         2.1200    1.6370    6.1330 hc        1 MOL      0.064099
    106 H47         5.2730    2.8960    3.9060 hc        1 MOL      0.149717
    107 H48         4.1000    4.1680    3.7470 hc        1 MOL      0.149717
    108 H49         4.7040    3.7670    5.3720 hc        1 MOL      0.149717
    109 H50         0.7240    3.8750    6.2370 hc        1 MOL      0.036596
    110 H51         1.9860    4.6910    5.3600 hc        1 MOL      0.036596
    111 H52         0.9160    3.4100    4.6180 hc        1 MOL      0.036596
    112 N10         4.0420    0.1050    2.2700 n         1 MOL     -0.274566
    113 C35         5.0190   -0.3590    1.2730 c3        1 MOL     -0.140539
    114 C36         5.9810   -1.4820    1.8130 c         1 MOL      0.619327
    115 O17         5.6460   -2.0260    2.8540 o         1 MOL     -0.514809
    116 C37         4.2920   -0.7620    0.0110 c3        1 MOL      0.410010
    117 C38         3.2440   -1.8760    0.2390 c3        1 MOL     -0.258120
    118 O18         3.5870    0.3590   -0.5540 oh        1 MOL     -0.616468
    119 H53         3.6570   -0.5620    2.9370 hn        1 MOL      0.205299
    120 H54         5.6200    0.4860    0.9230 h1        1 MOL      0.065488
    121 H55         5.0430   -1.2300   -0.6180 h1        1 MOL      0.008332
    122 H56         3.5380    1.0570    0.1090 ho        1 MOL      0.393477
    123 H57         2.9400   -2.2300   -0.7520 hc        1 MOL      0.068603
    124 H58         3.6270   -2.7360    0.7860 hc        1 MOL      0.068603
    125 H59         2.4310   -1.5650    0.8950 hc        1 MOL      0.068603
    126 N11         7.1880   -1.6430    1.2350 n         1 MOL     -0.478249
    127 C39         8.1970   -2.6630    1.6550 c3        1 MOL     -0.032758
    128 C40         9.5960   -2.3820    1.1990 c         1 MOL      0.554684
    129 O19        10.5820   -2.7220    1.9010 o         1 MOL     -0.571139
    130 C41         7.8680   -4.0520    1.0550 c3        1 MOL      0.232096
    131 C42         7.8560   -4.0570   -0.4280 c3        1 MOL     -0.105248
    132 O20         6.5600   -4.4100    1.4940 oh        1 MOL     -0.575497
    133 H60         7.4290   -1.0460    0.4690 hn        1 MOL      0.274592
    134 H61         8.2940   -2.7970    2.7280 h1        1 MOL      0.098169
    135 H62         8.6810   -4.7190    1.3470 h1        1 MOL      0.011063
    136 H63         6.6520   -4.7610    2.3760 ho        1 MOL      0.391012
    137 H64         7.2070   -3.2810   -0.8390 hc        1 MOL      0.041051
    138 H65         8.8420   -4.0240   -0.8950 hc        1 MOL      0.041051
    139 H66         7.4190   -5.0160   -0.6950 hc        1 MOL      0.041051
    140 N12         9.8120   -1.7290    0.0560 n         1 MOL     -0.392851
    141 C43        11.1060   -1.3780   -0.5980 c3        1 MOL     -0.016194
    142 C44        10.8590   -0.1270   -1.3960 c         1 MOL      0.604787
    143 O21         9.8860    0.0240   -2.1190 o         1 MOL     -0.507016
    144 C45        11.4370   -2.4730   -1.5420 c3        1 MOL     -0.245606
    145 C46        12.8590   -2.4300   -2.1260 c3        1 MOL      0.392008
    146 C47        12.9460   -3.5760   -3.1300 c3        1 MOL     -0.023533
    147 C48        14.2500   -3.6930   -3.8080 c3        1 MOL     -0.192401
    148 N13        15.3220   -3.9650   -2.7960 n4        1 MOL     -0.169325
    149 H67         9.0240   -1.3440   -0.4410 hn        1 MOL      0.213440
    150 H68        11.8600   -1.2390    0.1780 h1        1 MOL      0.117988
    151 H69        10.6400   -2.5310   -2.2930 hc        1 MOL      0.073550
    152 H70        11.4330   -3.4020   -0.9610 hc        1 MOL      0.073550
    153 H71        13.5600   -2.6050   -1.3140 hc        1 MOL     -0.090201
    154 H72        12.9980   -1.4720   -2.6190 hc        1 MOL     -0.090201
    155 H73        12.2380   -3.4130   -3.9400 hc        1 MOL      0.032991
    156 H74        12.7100   -4.4630   -2.5470 hc        1 MOL      0.032991
    157 H75        14.4820   -2.7310   -4.2610 hx        1 MOL      0.152558
    158 H76        14.2030   -4.5280   -4.5140 hx        1 MOL      0.152558
    159 H77        14.8240   -4.5250   -2.1170 hn        1 MOL      0.216799
    160 H78        16.1280   -4.4670   -3.1330 hn        1 MOL      0.216799
    161 H79        15.6220   -3.1770   -2.2470 hn        1 MOL      0.216799
    162 N14        11.7610    0.8740   -1.3290 n         1 MOL     -0.655386
    163 C49        11.5550    2.1420   -1.9850 c3        1 MOL      0.465792
    164 C50        10.2310    2.9450   -1.6840 c         1 MOL      0.273756
    165 O22         9.6150    3.3550   -2.6790 o         1 MOL     -0.499565
    166 C51        12.7980    3.0150   -1.7880 c3        1 MOL     -0.052644
    167 C52        12.7660    4.2220   -2.6840 c3        1 MOL     -0.329326
    168 C53        14.1740    4.7350   -3.2080 c         1 MOL      0.734384
    169 O23        14.8500    5.4480   -2.4610 o         1 MOL     -0.664404
    170 O24        14.5820    4.4670   -4.3560 o         1 MOL     -0.664404
    171 H80        12.4850    0.7500   -0.6410 hn        1 MOL      0.257587
    172 H81        11.3650    1.9490   -3.0350 h1        1 MOL      0.019903
    173 H82        13.6230    2.3770   -2.1080 hc        1 MOL      0.024602
    174 H83        12.8870    3.3090   -0.7460 hc        1 MOL      0.024602
    175 H84        12.2950    5.0020   -2.0860 hc        1 MOL      0.086623
    176 H85        12.1480    4.0100   -3.5630 hc        1 MOL      0.086623
    177 N15         9.7990    3.2080   -0.4760 n         1 MOL     -0.287581
    178 C54        10.5560    3.3660    0.7930 c3        1 MOL     -0.126581
    179 H86        10.0930    4.1480    1.3970 h1        1 MOL      0.080710
    180 H87        10.5420    2.4260    1.3450 h1        1 MOL      0.080710
    181 H88        11.5870    3.6410    0.5710 h1        1 MOL      0.080710
    182 H89         8.8500    3.5650   -0.4590 hn        1 MOL      0.282557
    183 Ca1        -7.8800    2.2650   -3.1720 Ca        1 MOL      1.725037
    184 O25        -6.3570    1.0820   -5.0030 oh        1 MOL     -0.832823
    185 H90        -5.8830    1.1950   -5.8210 ho        1 MOL      0.414294
    186 H91        -6.1940    0.1720   -4.7430 ho        1 MOL      0.414294
    187 O26        -5.5920    3.9280   -3.6680 oh        1 MOL     -0.832823
    188 H92        -5.2350    3.8860   -4.5550 ho        1 MOL      0.414294
    189 H93        -5.7840    4.8530   -3.5330 ho        1 MOL      0.414294
    190 O27        -9.8950    1.4340   -4.7670 oh        1 MOL     -0.832823
    191 H94       -10.1910    2.0100   -5.4730 ho        1 MOL      0.414294
    192 H95        -9.9110    0.5540   -5.1460 ho        1 MOL      0.414294
    193 O28        -7.8880    3.6310   -5.6670 oh        1 MOL     -0.832823
    194 H96        -7.3990    3.4200   -6.4570 ho        1 MOL      0.414294
    195 H97        -8.4220    4.3850   -5.9030 ho        1 MOL      0.414294
    196 O29        -9.7720    4.3040   -2.9750 oh        1 MOL     -0.832823
    197 H98       -10.0830    4.3480   -2.0680 ho        1 MOL      0.414294
    198 H99       -10.4940    4.6610   -3.4920 ho        1 MOL      0.414294
    199 O30        -5.8590    0.9560   -1.8360 oh        1 MOL     -0.832823
    200 H100       -6.0110    1.6440   -1.1940 ho        1 MOL      0.414294
    201 H101       -5.5650    0.2030   -1.3160 ho        1 MOL      0.414294
@<TRIPOS>BOND
     1    1    2 1   
     2    1    4 1   
     3    1    5 1   
     4    1    6 1   
     5    2    3 2   
     6    2    7 1   
     7    7    8 1   
     8    7   15 1   
     9    8    9 1   
    10    8   11 1   
    11    8   16 1   
    12    9   10 2   
    13    9   19 1   
    14   11   12 1   
    15   11   17 1   
    16   11   18 1   
    17   12   13 1   
    18   12   14 1   
    19   19   20 1   
    20   19   28 1   
    21   20   21 1   
    22   20   23 1   
    23   20   29 1   
    24   21   22 2   
    25   21   41 1   
    26   23   24 1   
    27   23   30 1   
    28   23   31 1   
    29   24   25 1   
    30   24   32 1   
    31   24   33 1   
    32   25   26 1   
    33   25   34 1   
    34   25   35 1   
    35   26   27 1   
    36   26   36 1   
    37   26   37 1   
    38   27   38 1   
    39   27   39 1   
    40   27   40 1   
    41   41   42 1   
    42   41   49 1   
    43   42   43 1   
    44   42   45 1   
    45   42   50 1   
    46   43   44 2   
    47   43   53 1   
    48   45   46 1   
    49   45   51 1   
    50   45   52 1   
    51   46   47 1   
    52   46   48 1   
    53   53   54 1   
    54   53   57 1   
    55   54   55 1   
    56   54   58 1   
    57   54   59 1   
    58   55   56 2   
    59   55   60 1   
    60   60   61 1   
    61   60   68 1   
    62   61   62 1   
    63   61   64 1   
    64   61   69 1   
    65   62   63 2   
    66   62   72 1   
    67   64   65 1   
    68   64   70 1   
    69   64   71 1   
    70   65   66 1   
    71   65   67 1   
    72   72   73 1   
    73   72   76 1   
    74   73   74 1   
    75   73   77 1   
    76   73   78 1   
    77   74   75 2   
    78   74   79 1   
    79   79   80 1   
    80   79   86 1   
    81   80   81 1   
    82   80   83 1   
    83   80   87 1   
    84   81   82 2   
    85   81   93 1   
    86   83   84 1   
    87   83   85 1   
    88   83   88 1   
    89   84   90 1   
    90   84   91 1   
    91   84   92 1   
    92   85   89 1   
    93   93   94 1   
    94   93  101 1   
    95   94   95 1   
    96   94   97 1   
    97   94  102 1   
    98   95   96 2   
    99   95  112 1   
   100   97   98 1   
   101   97   99 1   
   102   97  103 1   
   103   98  100 1   
   104   98  104 1   
   105   98  105 1   
   106   99  106 1   
   107   99  107 1   
   108   99  108 1   
   109  100  109 1   
   110  100  110 1   
   111  100  111 1   
   112  112  113 1   
   113  112  119 1   
   114  113  114 1   
   115  113  116 1   
   116  113  120 1   
   117  114  115 2   
   118  114  126 1   
   119  116  117 1   
   120  116  118 1   
   121  116  121 1   
   122  117  123 1   
   123  117  124 1   
   124  117  125 1   
   125  118  122 1   
   126  126  127 1   
   127  126  133 1   
   128  127  128 1   
   129  127  130 1   
   130  127  134 1   
   131  128  129 2   
   132  128  140 1   
   133  130  131 1   
   134  130  132 1   
   135  130  135 1   
   136  131  137 1   
   137  131  138 1   
   138  131  139 1   
   139  132  136 1   
   140  140  141 1   
   141  140  149 1   
   142  141  142 1   
   143  141  144 1   
   144  141  150 1   
   145  142  143 2   
   146  142  162 1   
   147  144  145 1   
   148  144  151 1   
   149  144  152 1   
   150  145  146 1   
   151  145  153 1   
   152  145  154 1   
   153  146  147 1   
   154  146  155 1   
   155  146  156 1   
   156  147  148 1   
   157  147  157 1   
   158  147  158 1   
   159  148  159 1   
   160  148  160 1   
   161  148  161 1   
   162  162  163 1   
   163  162  171 1   
   164  163  164 1   
   165  163  166 1   
   166  163  172 1   
   167  164  165 2   
   168  164  177 1   
   169  166  167 1   
   170  166  173 1   
   171  166  174 1   
   172  167  168 1   
   173  167  175 1   
   174  167  176 1   
   175  168  169 1   
   176  168  170 1   
   177  177  178 1   
   178  177  182 1   
   179  178  179 1   
   180  178  180 1   
   181  178  181 1   
   182  184  185 1   
   183  184  186 1   
   184  187  188 1   
   185  187  189 1   
   186  190  191 1   
   187  190  192 1   
   188  193  194 1   
   189  193  195 1   
   190  196  197 1   
   191  196  198 1   
   192  199  200 1   
   193  199  201 1   
@<TRIPOS>SUBSTRUCTURE
     1 MOL         1 TEMP              0 ****  ****    0 ROOT
