@<TRIPOS>MOLECULE
MOL
  181   177     1     0     0
SMALL
resp


@<TRIPOS>ATOM
      1 C1         -7.9820   -5.8240   -3.4280 c3        1 MOL     -0.327026
      2 C2         -6.9040   -5.3820   -2.4510 c         1 MOL      0.649748
      3 O1         -5.9730   -6.1590   -2.2650 o         1 MOL     -0.565186
      4 H1         -7.8210   -5.3380   -4.3900 hc        1 MOL      0.078967
      5 H2         -7.9360   -6.9060   -3.5560 hc        1 MOL      0.078967
      6 H3         -8.9610   -5.5450   -3.0400 hc        1 MOL      0.078967
      7 N1         -6.9850   -4.2030   -1.8360 n         1 MOL     -0.548053
      8 C3         -8.0030   -3.2170   -1.9500 c3        1 MOL      0.304917
      9 C4         -8.8140   -2.9010   -0.6510 c         1 MOL      0.260366
     10 O2         -9.8360   -2.1950   -0.7120 o         1 MOL     -0.501511
     11 C5         -7.4170   -1.8960   -2.4360 c3        1 MOL     -0.318546
     12 C6         -6.0680   -1.5590   -1.6840 c         1 MOL      0.714154
     13 O3         -5.1110   -1.1590   -2.3360 o         1 MOL     -0.668397
     14 O4         -6.1150   -1.5490   -0.4440 o         1 MOL     -0.668397
     15 H4         -6.2610   -4.1470   -1.1360 hn        1 MOL      0.329355
     16 H5         -8.7980   -3.4260   -2.6630 h1        1 MOL      0.049383
     17 H6         -8.0830   -1.0630   -2.2100 hc        1 MOL      0.078704
     18 H7         -7.2400   -1.8890   -3.5120 hc        1 MOL      0.078704
     19 N2         -8.4430   -3.4080    0.5720 n         1 MOL     -0.335098
     20 C7         -9.2960   -3.2460    1.7190 c3        1 MOL      0.255840
     21 C8         -8.9930   -1.8830    2.4030 c         1 MOL      0.452979
     22 O5         -9.9020   -1.3310    3.0400 o         1 MOL     -0.584399
     23 C9         -9.1840   -4.3850    2.7150 c3        1 MOL     -0.348963
     24 H8         -7.7010   -4.0850    0.5080 hn        1 MOL      0.241693
     25 H9        -10.3340   -3.1440    1.4150 h1        1 MOL      0.040557
     26 H10        -9.9510   -4.1770    3.4580 hc        1 MOL      0.088993
     27 H11        -9.3700   -5.3110    2.1870 hc        1 MOL      0.088993
     28 H12        -8.1730   -4.4360    3.1140 hc        1 MOL      0.088993
     29 N3         -7.8170   -1.3280    2.2220 n         1 MOL     -0.261162
     30 C10        -7.3790   -0.0430    2.7520 c3        1 MOL      0.087854
     31 C11        -7.2590    1.0840    1.7750 c         1 MOL      0.292242
     32 O6         -7.0880    2.2560    2.0490 o         1 MOL     -0.517833
     33 C12        -6.0570   -0.2680    3.4730 c3        1 MOL     -0.233143
     34 C13        -4.9710   -0.8780    2.6080 c         1 MOL      0.820468
     35 O7         -4.2760   -0.1570    1.9080 o         1 MOL     -0.772268
     36 O8         -4.7980   -2.1160    2.4590 o         1 MOL     -0.772268
     37 H13        -7.1590   -1.7280    1.5620 hn        1 MOL      0.194614
     38 H14        -8.1060    0.3260    3.4690 h1        1 MOL      0.093055
     39 H15        -6.3480   -0.9740    4.2470 hc        1 MOL      0.058311
     40 H16        -5.6350    0.6240    3.9430 hc        1 MOL      0.058311
     41 N4         -7.3680    0.7490    0.5080 n         1 MOL      0.055846
     42 C14        -7.4650    1.6060   -0.6680 c3        1 MOL     -0.176773
     43 C15        -6.1730    2.2400   -1.1500 c         1 MOL      0.523560
     44 O9         -5.0990    1.6570   -0.9570 o         1 MOL     -0.516053
     45 H17        -7.3920   -0.2550    0.3910 hn        1 MOL      0.039481
     46 H18        -8.1820    2.3580   -0.3460 h1        1 MOL      0.077317
     47 H19        -8.0670    1.1120   -1.4340 h1        1 MOL      0.077317
     48 N5         -6.1510    3.4920   -1.6700 n         1 MOL     -0.434743
     49 C16        -4.9320    4.2360   -2.0340 c3        1 MOL      0.050677
     50 C17        -3.7060    4.2620   -1.1060 c         1 MOL      0.823667
     51 O10        -3.8420    4.7270    0.0320 o         1 MOL     -0.569771
     52 C18        -5.4600    5.6260   -2.2620 c3        1 MOL     -0.372954
     53 C19        -4.4480    6.6330   -2.6390 c         1 MOL      0.598661
     54 N6         -4.4150    7.7950   -2.0250 n         1 MOL     -0.716637
     55 O11        -3.6290    6.2540   -3.4810 o         1 MOL     -0.533274
     56 H20        -7.0280    3.9920   -1.8110 hn        1 MOL      0.293533
     57 H21        -4.6240    3.8680   -3.0190 h1        1 MOL      0.051889
     58 H22        -6.0640    5.9810   -1.4240 hc        1 MOL      0.097057
     59 H23        -6.2550    5.7070   -3.0000 hc        1 MOL      0.097057
     60 H24        -5.2630    7.9170   -1.4820 hn        1 MOL      0.354573
     61 H25        -3.8590    8.5570   -2.3850 hn        1 MOL      0.354573
     62 N7         -2.4890    3.7740   -1.5180 n         1 MOL     -0.603936
     63 C20        -1.3270    3.5960   -0.6580 c3        1 MOL      0.113768
     64 C21        -1.7300    2.7430    0.5320 c         1 MOL      0.804358
     65 O12        -2.4150    1.8070    0.3250 o         1 MOL     -0.685356
     66 H26        -2.3940    3.3610   -2.4330 hn        1 MOL      0.304699
     67 H27        -1.0370    4.5820   -0.3050 h1        1 MOL      0.045630
     68 H28        -0.4640    3.1350   -1.1600 h1        1 MOL      0.045630
     69 N8         -1.3420    3.0380    1.8100 n         1 MOL     -0.403512
     70 C22        -0.3420    4.0200    2.3010 c3        1 MOL     -0.443153
     71 C23         1.1560    3.7220    1.9250 c         1 MOL      0.477614
     72 O13         1.9810    4.6210    2.0350 o         1 MOL     -0.548947
     73 C24        -0.3690    4.0960    3.8550 c3        1 MOL      0.513305
     74 C25        -1.5400    4.7200    4.5190 c3        1 MOL     -0.481458
     75 O14        -0.3190    2.7250    4.3350 oh        1 MOL     -0.656065
     76 H29        -1.7930    2.4050    2.4650 hn        1 MOL      0.278875
     77 H30        -0.5330    4.9660    1.8110 h1        1 MOL      0.189941
     78 H31         0.5400    4.5620    4.2360 h1        1 MOL      0.060495
     79 H32        -1.1920    2.3260    4.3060 ho        1 MOL      0.415795
     80 H33        -2.3840    4.0400    4.3760 hc        1 MOL      0.117284
     81 H34        -1.4170    4.8730    5.5910 hc        1 MOL      0.117284
     82 H35        -1.7290    5.6350    3.9510 hc        1 MOL      0.117284
     83 N9          1.5490    2.4870    1.5240 n         1 MOL     -0.130922
     84 C26         2.8000    2.1150    0.8380 c3        1 MOL     -0.276363
     85 C27         2.4710    1.3720   -0.4420 c         1 MOL      0.467888
     86 O15         1.4990    0.6300   -0.4410 o         1 MOL     -0.575217
     87 C28         3.6960    1.3900    1.7670 c3        1 MOL      0.268887
     88 C29         3.0270    0.0860    2.2930 c3        1 MOL     -0.014383
     89 C30         4.1950    2.2360    2.8930 c3        1 MOL     -0.308234
     90 C31         4.0220   -0.8580    3.1010 c3        1 MOL     -0.215340
     91 H36         0.8120    1.8130    1.5780 hn        1 MOL      0.167040
     92 H37         3.2570    3.0550    0.5350 h1        1 MOL      0.127243
     93 H38         4.5490    1.0070    1.1920 hc        1 MOL      0.008244
     94 H39         2.5620   -0.4140    1.4430 hc        1 MOL      0.046075
     95 H40         2.2530    0.3140    3.0280 hc        1 MOL      0.046075
     96 H41         3.5180    2.1790    3.7430 hc        1 MOL      0.067675
     97 H42         5.1250    1.8230    3.2960 hc        1 MOL      0.067675
     98 H43         4.2860    3.2950    2.6470 hc        1 MOL      0.067675
     99 H44         3.5080   -1.8260    3.0920 hc        1 MOL      0.042258
    100 H45         4.9850   -0.9650    2.6070 hc        1 MOL      0.042258
    101 H46         4.1880   -0.4750    4.1040 hc        1 MOL      0.042258
    102 N10         3.1460    1.5950   -1.5140 n         1 MOL     -0.253278
    103 C32         4.4360    2.1930   -1.7760 c3        1 MOL      0.011271
    104 C33         5.5310    1.1670   -1.1970 c         1 MOL      0.698106
    105 O16         5.3710   -0.0770   -1.1050 o         1 MOL     -0.566287
    106 C34         4.7350    2.4970   -3.2690 c3        1 MOL     -0.070682
    107 C35         3.4900    3.0140   -4.0000 c         1 MOL      0.625786
    108 O17         2.5420    2.1680   -4.2450 o         1 MOL     -0.683884
    109 O18         3.3920    4.2470   -4.2700 o         1 MOL     -0.683884
    110 H47         2.8720    1.1410   -2.3650 hn        1 MOL      0.237357
    111 H48         4.5100    3.1160   -1.1970 h1        1 MOL      0.065569
    112 H49         5.0710    1.6170   -3.8310 hc        1 MOL     -0.002376
    113 H50         5.4950    3.2600   -3.3580 hc        1 MOL     -0.002376
    114 N11         6.7180    1.7110   -0.9000 n         1 MOL     -0.888680
    115 C36         7.9100    0.9860   -0.5140 c3        1 MOL      0.846888
    116 C37         7.7800    0.4170    0.9450 c         1 MOL     -0.093210
    117 O19         7.5580    1.2060    1.8560 o         1 MOL     -0.466420
    118 C38         9.0830    1.9030   -0.6570 c3        1 MOL     -0.377545
    119 C39        10.4290    1.3200   -0.4120 ca        1 MOL      0.160981
    120 C40        10.9640    1.3090    0.8510 ca        1 MOL     -0.202376
    121 C41        11.1040    0.7130   -1.4880 ca        1 MOL     -0.202376
    122 C42        12.1990    0.5930    1.0990 ca        1 MOL     -0.144088
    123 C43        12.4040    0.0970   -1.3330 ca        1 MOL     -0.144088
    124 C44        12.9010    0.0370    0.0260 ca        1 MOL     -0.064960
    125 H51         6.8870    2.7060   -1.0010 hn        1 MOL      0.342302
    126 H52         8.1100    0.1800   -1.2270 h1        1 MOL     -0.104400
    127 H53         8.8900    2.7780   -0.0290 hc        1 MOL      0.093945
    128 H54         9.1720    2.1470   -1.7110 hc        1 MOL      0.093945
    129 H55        10.4220    1.7460    1.6730 ha        1 MOL      0.143670
    130 H56        10.7470    0.7630   -2.5110 ha        1 MOL      0.143670
    131 H57        12.5980    0.4630    2.0930 ha        1 MOL      0.123196
    132 H58        13.0650   -0.2250   -2.1150 ha        1 MOL      0.123196
    133 H59        13.9200   -0.2570    0.2380 ha        1 MOL      0.076204
    134 N12         8.2680   -0.8230    1.2240 n         1 MOL      0.433994
    135 C45         8.7140   -1.8560    0.2350 c3        1 MOL      0.180523
    136 C46         7.5390   -2.5490   -0.5640 c         1 MOL      0.363510
    137 O20         7.7210   -2.8640   -1.7700 o         1 MOL     -0.540479
    138 C47         9.5520   -2.8550    1.0690 c3        1 MOL     -0.228551
    139 C48         9.7690   -2.1750    2.4150 c3        1 MOL     -0.086746
    140 C49         8.5810   -1.2700    2.5680 c3        1 MOL     -0.068747
    141 H60         9.3620   -1.4380   -0.5300 h1        1 MOL     -0.038501
    142 H61         8.9580   -3.7200    1.3630 hc        1 MOL      0.081248
    143 H62        10.5280   -3.0720    0.6200 hc        1 MOL      0.081248
    144 H63         9.7360   -2.9330    3.1900 hc        1 MOL      0.029711
    145 H64        10.6530   -1.5370    2.3350 hc        1 MOL      0.029711
    146 H65         7.7330   -1.7590    3.0480 h1        1 MOL      0.029536
    147 H66         8.9060   -0.4080    3.1550 h1        1 MOL      0.029536
    148 N13         6.4930   -2.8900    0.1700 n         1 MOL     -0.510532
    149 C50         5.4310   -3.7150   -0.3940 c3        1 MOL      0.495946
    150 C51         5.8500   -5.2080   -0.6890 c         1 MOL      0.337898
    151 O21         6.0110   -5.9050    0.3130 o         1 MOL     -0.577553
    152 C52         4.1920   -3.5690    0.5110 c3        1 MOL     -0.163236
    153 C53         2.8830   -4.1230   -0.0850 c3        1 MOL     -0.053435
    154 C54         1.6970   -3.6760    0.7650 c         1 MOL      0.746450
    155 O22         0.7330   -3.3100    0.0460 o         1 MOL     -0.719304
    156 O23         1.5750   -3.8990    1.9850 o         1 MOL     -0.719304
    157 H67         6.5020   -2.6330    1.1490 hn        1 MOL      0.252419
    158 H68         5.1210   -3.3320   -1.3660 h1        1 MOL      0.015750
    159 H69         4.0200   -2.5110    0.7040 hc        1 MOL      0.039705
    160 H70         4.3190   -4.0290    1.4920 hc        1 MOL      0.039705
    161 H71         2.9350   -5.2040   -0.2210 hc        1 MOL     -0.025878
    162 H72         2.7040   -3.8360   -1.1190 hc        1 MOL     -0.025878
    163 N14         6.0930   -5.7700   -1.8570 n         1 MOL     -0.283772
    164 C55         6.0660   -5.1440   -3.2060 c3        1 MOL     -0.149195
    165 H73         5.0330   -4.9540   -3.4980 h1        1 MOL      0.076122
    166 H74         6.6160   -4.2040   -3.1820 h1        1 MOL      0.076122
    167 H75         6.5290   -5.8170   -3.9280 h1        1 MOL      0.076122
    168 H76         6.4670   -6.7090   -1.8590 hn        1 MOL      0.266452
    169 Ca1        -3.5240   -0.5340   -0.4290 Ca        1 MOL      1.807103
    170 O24        -0.8440   -0.9300   -0.0150 oh        1 MOL     -0.929365
    171 H77        -0.5790   -1.8400    0.1200 ho        1 MOL      0.443296
    172 H78        -0.0270   -0.4560   -0.1500 ho        1 MOL      0.443296
    173 O25        -2.4270   -2.7520   -1.7200 oh        1 MOL     -0.929365
    174 H79        -1.9190   -2.5590   -2.5050 ho        1 MOL      0.443296
    175 H80        -1.8640   -3.3560   -1.2210 ho        1 MOL      0.443296
    176 O26        -2.4610    0.1520   -2.6890 oh        1 MOL     -0.929365
    177 H81        -1.7800    0.7800   -2.9270 ho        1 MOL      0.443296
    178 H82        -2.7540   -0.2220   -3.5140 ho        1 MOL      0.443296
    179 O27        -2.7510   -2.9430    1.1570 oh        1 MOL     -0.929365
    180 H83        -3.5180   -2.6200    1.6140 ho        1 MOL      0.443296
    181 H84        -2.4870   -3.7260    1.6460 ho        1 MOL      0.443296
@<TRIPOS>BOND
     1    1    2 1   
     2    1    4 1   
     3    1    5 1   
     4    1    6 1   
     5    2    3 2   
     6    2    7 1   
     7    7    8 1   
     8    7   15 1   
     9    8    9 1   
    10    8   11 1   
    11    8   16 1   
    12    9   10 2   
    13    9   19 1   
    14   11   12 1   
    15   11   17 1   
    16   11   18 1   
    17   12   13 1   
    18   12   14 1   
    19   19   20 1   
    20   19   24 1   
    21   20   21 1   
    22   20   23 1   
    23   20   25 1   
    24   21   22 2   
    25   21   29 1   
    26   23   26 1   
    27   23   27 1   
    28   23   28 1   
    29   29   30 1   
    30   29   37 1   
    31   30   31 1   
    32   30   33 1   
    33   30   38 1   
    34   31   32 2   
    35   31   41 1   
    36   33   34 1   
    37   33   39 1   
    38   33   40 1   
    39   34   35 1   
    40   34   36 1   
    41   41   42 1   
    42   41   45 1   
    43   42   43 1   
    44   42   46 1   
    45   42   47 1   
    46   43   44 2   
    47   43   48 1   
    48   48   49 1   
    49   48   56 1   
    50   49   50 1   
    51   49   52 1   
    52   49   57 1   
    53   50   51 2   
    54   50   62 1   
    55   52   53 1   
    56   52   58 1   
    57   52   59 1   
    58   53   54 1   
    59   53   55 2   
    60   54   60 1   
    61   54   61 1   
    62   62   63 1   
    63   62   66 1   
    64   63   64 1   
    65   63   67 1   
    66   63   68 1   
    67   64   65 2   
    68   64   69 1   
    69   69   70 1   
    70   69   76 1   
    71   70   71 1   
    72   70   73 1   
    73   70   77 1   
    74   71   72 2   
    75   71   83 1   
    76   73   74 1   
    77   73   75 1   
    78   73   78 1   
    79   74   80 1   
    80   74   81 1   
    81   74   82 1   
    82   75   79 1   
    83   83   84 1   
    84   83   91 1   
    85   84   85 1   
    86   84   87 1   
    87   84   92 1   
    88   85   86 2   
    89   85  102 1   
    90   87   88 1   
    91   87   89 1   
    92   87   93 1   
    93   88   90 1   
    94   88   94 1   
    95   88   95 1   
    96   89   96 1   
    97   89   97 1   
    98   89   98 1   
    99   90   99 1   
   100   90  100 1   
   101   90  101 1   
   102  102  103 1   
   103  102  110 1   
   104  103  104 1   
   105  103  106 1   
   106  103  111 1   
   107  104  105 2   
   108  104  114 1   
   109  106  107 1   
   110  106  112 1   
   111  106  113 1   
   112  107  108 1   
   113  107  109 1   
   114  114  115 1   
   115  114  125 1   
   116  115  116 1   
   117  115  118 1   
   118  115  126 1   
   119  116  117 2   
   120  116  134 1   
   121  118  119 1   
   122  118  127 1   
   123  118  128 1   
   124  119  120 ar  
   125  119  121 ar  
   126  120  122 ar  
   127  120  129 1   
   128  121  123 ar  
   129  121  130 1   
   130  122  124 ar  
   131  122  131 1   
   132  123  124 ar  
   133  123  132 1   
   134  124  133 1   
   135  134  135 1   
   136  134  140 1   
   137  135  136 1   
   138  135  138 1   
   139  135  141 1   
   140  136  137 2   
   141  136  148 1   
   142  138  139 1   
   143  138  142 1   
   144  138  143 1   
   145  139  140 1   
   146  139  144 1   
   147  139  145 1   
   148  140  146 1   
   149  140  147 1   
   150  148  149 1   
   151  148  157 1   
   152  149  150 1   
   153  149  152 1   
   154  149  158 1   
   155  150  151 2   
   156  150  163 1   
   157  152  153 1   
   158  152  159 1   
   159  152  160 1   
   160  153  154 1   
   161  153  161 1   
   162  153  162 1   
   163  154  155 1   
   164  154  156 1   
   165  163  164 1   
   166  163  168 1   
   167  164  165 1   
   168  164  166 1   
   169  164  167 1   
   170  170  171 1   
   171  170  172 1   
   172  173  174 1   
   173  173  175 1   
   174  176  177 1   
   175  176  178 1   
   176  179  180 1   
   177  179  181 1   
@<TRIPOS>SUBSTRUCTURE
     1 MOL         1 TEMP              0 ****  ****    0 ROOT
