@<TRIPOS>MOLECULE
MOL
  189   185     1     0     0
SMALL
resp


@<TRIPOS>ATOM
      1 C1          4.6240    4.0760   -3.2400 c3        1 MOL     -0.455277
      2 C2          5.3300    2.9960   -2.4010 c         1 MOL      0.724206
      3 O1          4.6850    2.4520   -1.4880 o         1 MOL     -0.536073
      4 H1          3.5830    3.7910   -3.3960 hc        1 MOL      0.112692
      5 H2          4.6630    5.0300   -2.7140 hc        1 MOL      0.112692
      6 H3          5.1220    4.1710   -4.2040 hc        1 MOL      0.112692
      7 N1          6.5480    2.5420   -2.7890 n         1 MOL     -0.691343
      8 C3          7.2780    1.3240   -2.2690 c3        1 MOL      0.270555
      9 C4          6.3770    0.1530   -1.8460 c         1 MOL      0.350336
     10 O2          6.1260   -0.0030   -0.6040 o         1 MOL     -0.536599
     11 C5          8.2490    1.7610   -1.1370 c3        1 MOL     -0.067557
     12 C6          7.7160    2.9560   -0.2750 c         1 MOL      0.704986
     13 O3          6.7420    2.7660    0.5080 o         1 MOL     -0.722295
     14 O4          8.3340    4.0550   -0.2920 o         1 MOL     -0.722295
     15 H4          6.9610    3.1000   -3.5250 hn        1 MOL      0.335404
     16 H5          7.9930    0.9030   -2.9740 h1        1 MOL      0.011842
     17 H6          9.1670    2.0670   -1.6170 hc        1 MOL     -0.007059
     18 H7          8.4510    0.9640   -0.4200 hc        1 MOL     -0.007059
     19 N2          5.6850   -0.4060   -2.8860 n         1 MOL     -0.379514
     20 C7          4.7730   -1.5270   -2.9920 c3        1 MOL      0.138508
     21 C8          5.1810   -2.8150   -2.2380 c         1 MOL      0.292904
     22 O5          5.2480   -3.8800   -2.8360 o         1 MOL     -0.524468
     23 C9          3.3000   -1.1120   -2.7910 c3        1 MOL      0.185269
     24 C10         2.2210   -2.2880   -2.8970 c3        1 MOL      0.024635
     25 C11         2.7430    0.0570   -3.7270 c3        1 MOL     -0.264373
     26 C12         2.3000   -3.0440   -4.2440 c3        1 MOL     -0.223361
     27 H8          5.9650    0.0140   -3.7640 hn        1 MOL      0.225805
     28 H9          4.7880   -1.8770   -4.0250 h1        1 MOL      0.029894
     29 H10         3.2190   -0.7570   -1.7600 hc        1 MOL     -0.066400
     30 H11         1.1870   -1.9690   -2.7160 hc        1 MOL      0.048290
     31 H12         2.4140   -3.0500   -2.1430 hc        1 MOL      0.048290
     32 H13         3.4240    0.9000   -3.6190 hc        1 MOL      0.044075
     33 H14         2.6590   -0.2650   -4.7600 hc        1 MOL      0.044075
     34 H15         1.7930    0.4390   -3.3570 hc        1 MOL      0.044075
     35 H16         1.7430   -3.9800   -4.1670 hc        1 MOL      0.034589
     36 H17         1.7770   -2.4770   -5.0130 hc        1 MOL      0.034589
     37 H18         3.3320   -3.2880   -4.4910 hc        1 MOL      0.034589
     38 N3          5.3710   -2.7940   -0.9120 n         1 MOL     -0.107932
     39 C13         6.0150   -3.9810   -0.2690 c3        1 MOL      0.134274
     40 C14         5.1120   -5.2190   -0.0670 c         1 MOL      0.586983
     41 O6          5.5630   -6.2830   -0.4510 o         1 MOL     -0.606557
     42 C15         6.8800   -3.5930    0.9680 c3        1 MOL     -0.324276
     43 C16         8.0300   -2.5780    0.6590 c         1 MOL      0.778821
     44 O7          8.3100   -1.6680    1.4630 o         1 MOL     -0.719922
     45 O8          8.7390   -2.8410   -0.3430 o         1 MOL     -0.719922
     46 H19         5.2880   -1.8820   -0.4860 hn        1 MOL      0.302827
     47 H20         6.7000   -4.3040   -1.0620 h1        1 MOL      0.034145
     48 H21         7.2840   -4.5280    1.3470 hc        1 MOL      0.069645
     49 H22         6.2300   -3.1550    1.7280 hc        1 MOL      0.069645
     50 N4          3.8860   -5.1960    0.4050 n         1 MOL     -0.565205
     51 C17         3.1380   -4.1430    1.0770 c3        1 MOL      0.015613
     52 C18         3.6700   -3.7880    2.4960 c         1 MOL      0.451111
     53 O9          4.3220   -4.5260    3.1850 o         1 MOL     -0.526347
     54 H23         3.3910   -6.0200    0.0930 hn        1 MOL      0.304300
     55 H24         2.1100   -4.5120    1.1180 h1        1 MOL      0.104521
     56 H25         3.1280   -3.2340    0.4740 h1        1 MOL      0.104521
     57 N5          3.2180   -2.6180    3.0080 n         1 MOL     -0.225736
     58 C19         2.0800   -1.7990    2.4960 c3        1 MOL     -0.236142
     59 C20         2.3230   -1.0590    1.1770 c         1 MOL      0.004093
     60 O10         3.5110   -0.8030    0.8230 o         1 MOL     -0.582577
     61 C21         1.5920   -0.8650    3.6230 c3        1 MOL     -0.114547
     62 C22         2.7380    0.0300    4.0400 c         1 MOL      0.848346
     63 O11         3.0750    0.0830    5.2560 o         1 MOL     -0.723711
     64 O12         3.0780    0.8510    3.1790 o         1 MOL     -0.723711
     65 H26         3.6730   -2.4880    3.8990 hn        1 MOL      0.221612
     66 H27         1.2630   -2.5150    2.3530 h1        1 MOL      0.117125
     67 H28         1.3150   -1.4210    4.5160 hc        1 MOL      0.053204
     68 H29         0.7650   -0.2060    3.3700 hc        1 MOL      0.053204
     69 N6          1.3190   -0.6580    0.4050 n         1 MOL      0.068596
     70 C23        -0.0580   -1.0970    0.6640 c3        1 MOL     -0.187916
     71 C24        -0.4710   -2.5020    0.2840 c         1 MOL      0.513630
     72 O13         0.3800   -3.2360   -0.2290 o         1 MOL     -0.535217
     73 H30         1.4140   -0.0240   -0.3790 hn        1 MOL      0.217922
     74 H31        -0.6570   -0.4120    0.0530 h1        1 MOL      0.104771
     75 H32        -0.2690   -0.9610    1.7250 h1        1 MOL      0.104771
     76 N7         -1.7150   -2.7840    0.5520 n         1 MOL     -0.414329
     77 C25        -2.3850   -3.9800    0.0220 c3        1 MOL     -0.001431
     78 C26        -3.2420   -3.7740   -1.3070 c         1 MOL      0.431915
     79 O14        -3.6270   -4.7200   -1.9410 o         1 MOL     -0.522707
     80 C27        -3.2070   -4.6940    1.1570 c3        1 MOL      0.044759
     81 C28        -4.4050   -4.0910    1.8670 c3        1 MOL     -0.289492
     82 C29        -5.4970   -3.5470    0.9630 c         1 MOL      0.600436
     83 N8         -6.4120   -4.3400    0.5180 n         1 MOL     -0.749953
     84 O15        -5.5290   -2.3010    0.7580 o         1 MOL     -0.536121
     85 H33        -2.2150   -2.1160    1.1250 hn        1 MOL      0.297638
     86 H34        -1.6600   -4.7650   -0.1780 h1        1 MOL      0.117747
     87 H35        -2.5600   -5.0180    1.9720 hc        1 MOL      0.013984
     88 H36        -3.5230   -5.6670    0.7770 hc        1 MOL      0.013984
     89 H37        -3.9360   -3.3080    2.4600 hc        1 MOL      0.111090
     90 H38        -4.8610   -4.7850    2.5760 hc        1 MOL      0.111090
     91 H39        -6.5000   -5.3030    0.8130 hn        1 MOL      0.366513
     92 H40        -6.9790   -3.9650   -0.2320 hn        1 MOL      0.366513
     93 N9         -3.5510   -2.5130   -1.6400 n         1 MOL     -0.179820
     94 C30        -4.0130   -2.0290   -2.9550 c3        1 MOL     -0.107194
     95 C31        -5.4660   -1.5560   -3.0370 c         1 MOL      0.373181
     96 O16        -6.0470   -1.4350   -4.1040 o         1 MOL     -0.528395
     97 C32        -3.0500   -0.9590   -3.5450 c3        1 MOL      0.206593
     98 C33        -1.7030   -1.4310   -3.8070 c3        1 MOL     -0.121537
     99 C34        -3.0050    0.3620   -2.7730 c3        1 MOL     -0.121537
    100 H41        -3.2310   -1.7710   -1.0480 hn        1 MOL      0.176284
    101 H42        -3.9090   -2.8710   -3.6300 h1        1 MOL      0.116147
    102 H43        -3.4690   -0.8560   -4.5530 hc        1 MOL     -0.006763
    103 H44        -1.1970   -1.9010   -2.9560 hc        1 MOL      0.015855
    104 H45        -1.8370   -2.1640   -4.5940 hc        1 MOL      0.015855
    105 H46        -1.0880   -0.6080   -4.1740 hc        1 MOL      0.015855
    106 H47        -2.5510    1.1490   -3.3870 hc        1 MOL      0.015855
    107 H48        -3.9900    0.7220   -2.4790 hc        1 MOL      0.015855
    108 H49        -2.4500    0.1980   -1.8460 hc        1 MOL      0.015855
    109 N10        -6.0430   -1.2850   -1.8410 n         1 MOL     -0.089350
    110 C35        -7.3830   -0.5910   -1.7930 c3        1 MOL      0.143829
    111 C36        -7.3640    0.7700   -1.0870 c         1 MOL      0.317795
    112 O17        -8.4500    1.3130   -0.8800 o         1 MOL     -0.493352
    113 C37        -8.4170   -1.4840   -1.0190 c3        1 MOL     -0.153421
    114 C38        -8.8840   -2.7500   -1.7260 c         1 MOL      0.642827
    115 N11        -9.5740   -2.6350   -2.8560 n         1 MOL     -0.799683
    116 O18        -8.5970   -3.8430   -1.3890 o         1 MOL     -0.542616
    117 H50        -5.4780   -1.4650   -1.0250 hn        1 MOL      0.092512
    118 H51        -7.7640   -0.5310   -2.8130 h1        1 MOL      0.033873
    119 H52        -9.3350   -0.9040   -0.8830 hc        1 MOL      0.023313
    120 H53        -8.0360   -1.7060   -0.0220 hc        1 MOL      0.023313
    121 H54       -10.1230   -1.8000   -3.0100 hn        1 MOL      0.365355
    122 H55        -9.6050   -3.4680   -3.4210 hn        1 MOL      0.365355
    123 N12        -6.2000    1.2230   -0.6030 n         1 MOL     -0.317332
    124 C39        -6.1660    2.4340    0.2540 c3        1 MOL      0.198962
    125 C40        -4.7270    2.8660    0.4630 c         1 MOL      0.183982
    126 O19        -3.8440    2.0880    0.2250 o         1 MOL     -0.391679
    127 C41        -6.8210    2.2050    1.6210 c3        1 MOL     -0.205048
    128 C42        -6.7230    0.7980    2.1790 ca        1 MOL      0.252940
    129 C43        -7.7970   -0.1220    2.3230 ca        1 MOL     -0.370260
    130 C44        -5.5140    0.5760    2.8840 ca        1 MOL     -0.370260
    131 C45        -7.6170   -1.2660    3.0590 ca        1 MOL     -0.031149
    132 C46        -5.4130   -0.5880    3.6880 ca        1 MOL     -0.031149
    133 C47        -6.4610   -1.4540    3.7900 ca        1 MOL      0.149305
    134 O20        -6.4690   -2.5190    4.6880 oh        1 MOL     -0.477759
    135 H56        -5.3290    0.7540   -0.8190 hn        1 MOL      0.274765
    136 H57        -6.7520    3.2440   -0.1930 h1        1 MOL      0.041583
    137 H58        -7.8810    2.3670    1.4250 hc        1 MOL      0.071186
    138 H59        -6.5350    2.8710    2.4310 hc        1 MOL      0.071186
    139 H60        -8.7370    0.0460    1.8200 ha        1 MOL      0.180435
    140 H61        -4.7170    1.3070    2.8840 ha        1 MOL      0.180435
    141 H62        -8.4420   -1.9440    3.1700 ha        1 MOL      0.103688
    142 H63        -4.5660   -0.8840    4.2860 ha        1 MOL      0.103688
    143 H64        -7.2180   -3.0950    4.5290 ho        1 MOL      0.323826
    144 N13        -4.5460    4.1040    0.8670 n         1 MOL     -0.346641
    145 C48        -3.2910    4.6230    1.4380 c3        1 MOL      0.204582
    146 C49        -2.2350    5.0990    0.3780 c         1 MOL      0.216965
    147 O21        -1.8840    6.2830    0.3520 o         1 MOL     -0.500253
    148 C50        -2.7380    3.6830    2.4840 c3        1 MOL     -0.105647
    149 C51        -1.6160    4.3220    3.2780 c3        1 MOL     -0.351188
    150 C52        -1.1210    3.4150    4.4630 c         1 MOL      0.767927
    151 O22        -1.8590    2.9620    5.3560 o         1 MOL     -0.714563
    152 O23         0.0690    3.1100    4.5270 o         1 MOL     -0.714563
    153 H65        -5.4070    4.5880    1.0760 hn        1 MOL      0.237047
    154 H66        -3.5850    5.5210    1.9760 h1        1 MOL      0.034360
    155 H67        -2.3400    2.7980    1.9870 hc        1 MOL      0.073356
    156 H68        -3.6050    3.4080    3.0860 hc        1 MOL      0.073356
    157 H69        -2.0560    5.2100    3.7460 hc        1 MOL      0.071163
    158 H70        -0.7990    4.6020    2.6110 hc        1 MOL      0.071163
    159 N14        -1.8590    4.2270   -0.5090 n         1 MOL      0.047425
    160 C53        -0.9890    4.5840   -1.6600 c3        1 MOL     -0.403240
    161 C54        -1.7750    5.4840   -2.6870 c         1 MOL      0.652390
    162 O24        -1.1390    6.1830   -3.4900 o         1 MOL     -0.551490
    163 C55        -0.2770    3.3370   -2.2470 c3        1 MOL     -0.220714
    164 C56         0.3040    2.4110   -1.1820 c3        1 MOL      0.644756
    165 C57         1.3540    2.8320   -0.1750 c         1 MOL      0.538437
    166 O25         1.6550    4.0470   -0.0550 o         1 MOL     -0.637383
    167 O26         2.0520    1.9570    0.3540 o         1 MOL     -0.637383
    168 H71        -2.0990    3.2630   -0.3660 hn        1 MOL      0.132111
    169 H72        -0.1410    5.1320   -1.2670 h1        1 MOL      0.209002
    170 H73         0.5610    3.5830   -2.9020 hc        1 MOL      0.061061
    171 H74        -0.9390    2.8130   -2.9210 hc        1 MOL      0.061061
    172 H75         0.6800    1.5470   -1.7240 hc        1 MOL     -0.196761
    173 H76        -0.5390    1.9860   -0.6260 hc        1 MOL     -0.196761
    174 N15        -3.1170    5.5420   -2.5810 n         1 MOL     -0.362706
    175 C58        -3.8950    6.5080   -3.4400 c3        1 MOL     -0.128168
    176 H77        -4.9110    6.1380   -3.5720 h1        1 MOL      0.073529
    177 H78        -3.9230    7.4840   -2.9560 h1        1 MOL      0.073529
    178 H79        -3.4130    6.5980   -4.4140 h1        1 MOL      0.073529
    179 H80        -3.5940    5.1270   -1.7880 hn        1 MOL      0.223175
    180 Ca1         4.6100    1.5380    1.1180 Ca        1 MOL      1.773792
    181 O27         5.3740    2.6890    3.6830 oh        1 MOL     -0.835214
    182 H81         5.8910    2.0870    4.2150 ho        1 MOL      0.399881
    183 H82         4.9400    3.2620    4.3200 ho        1 MOL      0.399881
    184 O28         6.3600   -0.0080    2.4010 oh        1 MOL     -0.835214
    185 H83         6.9210   -0.5760    1.8850 ho        1 MOL      0.399881
    186 H84         6.6260   -0.1550    3.3060 ho        1 MOL      0.399881
    187 O29         3.9150    4.2140    1.5820 oh        1 MOL     -0.835214
    188 H85         3.3880    4.3150    2.3710 ho        1 MOL      0.399881
    189 H86         3.2940    4.3200    0.8660 ho        1 MOL      0.399881
@<TRIPOS>BOND
     1    1    2 1   
     2    1    4 1   
     3    1    5 1   
     4    1    6 1   
     5    2    3 2   
     6    2    7 1   
     7    7    8 1   
     8    7   15 1   
     9    8    9 1   
    10    8   11 1   
    11    8   16 1   
    12    9   10 2   
    13    9   19 1   
    14   11   12 1   
    15   11   17 1   
    16   11   18 1   
    17   12   13 1   
    18   12   14 1   
    19   19   20 1   
    20   19   27 1   
    21   20   21 1   
    22   20   23 1   
    23   20   28 1   
    24   21   22 2   
    25   21   38 1   
    26   23   24 1   
    27   23   25 1   
    28   23   29 1   
    29   24   26 1   
    30   24   30 1   
    31   24   31 1   
    32   25   32 1   
    33   25   33 1   
    34   25   34 1   
    35   26   35 1   
    36   26   36 1   
    37   26   37 1   
    38   38   39 1   
    39   38   46 1   
    40   39   40 1   
    41   39   42 1   
    42   39   47 1   
    43   40   41 2   
    44   40   50 1   
    45   42   43 1   
    46   42   48 1   
    47   42   49 1   
    48   43   44 1   
    49   43   45 1   
    50   50   51 1   
    51   50   54 1   
    52   51   52 1   
    53   51   55 1   
    54   51   56 1   
    55   52   53 2   
    56   52   57 1   
    57   57   58 1   
    58   57   65 1   
    59   58   59 1   
    60   58   61 1   
    61   58   66 1   
    62   59   60 2   
    63   59   69 1   
    64   61   62 1   
    65   61   67 1   
    66   61   68 1   
    67   62   63 1   
    68   62   64 1   
    69   69   70 1   
    70   69   73 1   
    71   70   71 1   
    72   70   74 1   
    73   70   75 1   
    74   71   72 2   
    75   71   76 1   
    76   76   77 1   
    77   76   85 1   
    78   77   78 1   
    79   77   80 1   
    80   77   86 1   
    81   78   79 2   
    82   78   93 1   
    83   80   81 1   
    84   80   87 1   
    85   80   88 1   
    86   81   82 1   
    87   81   89 1   
    88   81   90 1   
    89   82   83 1   
    90   82   84 2   
    91   83   91 1   
    92   83   92 1   
    93   93   94 1   
    94   93  100 1   
    95   94   95 1   
    96   94   97 1   
    97   94  101 1   
    98   95   96 2   
    99   95  109 1   
   100   97   98 1   
   101   97   99 1   
   102   97  102 1   
   103   98  103 1   
   104   98  104 1   
   105   98  105 1   
   106   99  106 1   
   107   99  107 1   
   108   99  108 1   
   109  109  110 1   
   110  109  117 1   
   111  110  111 1   
   112  110  113 1   
   113  110  118 1   
   114  111  112 2   
   115  111  123 1   
   116  113  114 1   
   117  113  119 1   
   118  113  120 1   
   119  114  115 1   
   120  114  116 2   
   121  115  121 1   
   122  115  122 1   
   123  123  124 1   
   124  123  135 1   
   125  124  125 1   
   126  124  127 1   
   127  124  136 1   
   128  125  126 2   
   129  125  144 1   
   130  127  128 1   
   131  127  137 1   
   132  127  138 1   
   133  128  129 ar  
   134  128  130 ar  
   135  129  131 ar  
   136  129  139 1   
   137  130  132 ar  
   138  130  140 1   
   139  131  133 ar  
   140  131  141 1   
   141  132  133 ar  
   142  132  142 1   
   143  133  134 1   
   144  134  143 1   
   145  144  145 1   
   146  144  153 1   
   147  145  146 1   
   148  145  148 1   
   149  145  154 1   
   150  146  147 2   
   151  146  159 1   
   152  148  149 1   
   153  148  155 1   
   154  148  156 1   
   155  149  150 1   
   156  149  157 1   
   157  149  158 1   
   158  150  151 1   
   159  150  152 1   
   160  159  160 1   
   161  159  168 1   
   162  160  161 1   
   163  160  163 1   
   164  160  169 1   
   165  161  162 2   
   166  161  174 1   
   167  163  164 1   
   168  163  170 1   
   169  163  171 1   
   170  164  165 1   
   171  164  172 1   
   172  164  173 1   
   173  165  166 1   
   174  165  167 1   
   175  174  175 1   
   176  174  179 1   
   177  175  176 1   
   178  175  177 1   
   179  175  178 1   
   180  181  182 1   
   181  181  183 1   
   182  184  185 1   
   183  184  186 1   
   184  187  188 1   
   185  187  189 1   
@<TRIPOS>SUBSTRUCTURE
     1 MOL         1 TEMP              0 ****  ****    0 ROOT
