@<TRIPOS>MOLECULE
MOL
  178   175     1     0     0
SMALL
resp


@<TRIPOS>ATOM
      1 C1         11.4410   -6.4210   -0.3530 c3        1 MOL     -0.242981
      2 C2         10.6210   -5.4130   -1.0910 c         1 MOL      0.633839
      3 O1         10.0760   -5.6600   -2.1910 o         1 MOL     -0.587384
      4 H1         11.2360   -7.4150   -0.7500 hc        1 MOL      0.062269
      5 H2         12.4990   -6.1910   -0.4790 hc        1 MOL      0.062269
      6 H3         11.1850   -6.3920    0.7060 hc        1 MOL      0.062269
      7 N1         10.3920   -4.1760   -0.5900 n         1 MOL     -0.443754
      8 C3         11.0320   -3.6760    0.6280 c3        1 MOL      0.091606
      9 C4         11.3550   -2.1340    0.3650 c         1 MOL      0.354749
     10 O2         11.1080   -1.6260   -0.7590 o         1 MOL     -0.392779
     11 C5         10.1250   -3.7960    1.8410 c3        1 MOL     -0.221719
     12 C6          8.8250   -2.9830    1.6940 c         1 MOL      0.825927
     13 O3          7.8480   -3.4150    1.0650 o         1 MOL     -0.793189
     14 O4          8.8010   -1.8130    1.9830 o         1 MOL     -0.793189
     15 H4          9.9260   -3.5750   -1.2590 hn        1 MOL      0.329475
     16 H5         11.9560   -4.2400    0.7860 h1        1 MOL      0.045824
     17 H6         10.5330   -3.4840    2.8060 hc        1 MOL      0.030484
     18 H7          9.8300   -4.8330    1.9230 hc        1 MOL      0.030484
     19 N2         11.9300   -1.4860    1.4040 n         1 MOL     -0.432942
     20 C7         12.5820   -0.1280    1.3000 c3        1 MOL      0.085082
     21 C8         11.7170    0.9540    0.5760 c         1 MOL      0.516866
     22 O5         12.1880    1.9620    0.1570 o         1 MOL     -0.533089
     23 C9         13.8960   -0.3700    0.6020 c3        1 MOL     -0.335008
     24 H8         11.9660   -1.8360    2.3480 hn        1 MOL      0.314966
     25 H9         12.7000    0.1360    2.3550 h1        1 MOL      0.057848
     26 H10        13.8110   -0.4870   -0.4720 hc        1 MOL      0.102305
     27 H11        14.4240    0.5790    0.6560 hc        1 MOL      0.102305
     28 H12        14.4610   -1.2180    1.0020 hc        1 MOL      0.102305
     29 N3         10.3890    0.8380    0.5070 n         1 MOL     -0.405759
     30 C10         9.5710    1.7830   -0.1700 c3        1 MOL      0.044155
     31 C11         8.2890    2.0230    0.5240 c         1 MOL      0.551706
     32 O6          7.8600    1.2060    1.3860 o         1 MOL     -0.621110
     33 C12         9.2610    1.3250   -1.6360 c3        1 MOL     -0.104353
     34 C13         8.4070    0.0460   -1.9060 c         1 MOL      0.610488
     35 O7          8.4690   -0.3910   -3.1010 o         1 MOL     -0.665997
     36 O8          7.8150   -0.5660   -0.9730 o         1 MOL     -0.665997
     37 H13         9.9330    0.0000    0.8340 hn        1 MOL      0.262904
     38 H14        10.0560    2.7630   -0.1460 h1        1 MOL      0.040324
     39 H15        10.2080    1.0610   -2.1050 hc        1 MOL      0.048312
     40 H16         8.8470    2.1750   -2.1700 hc        1 MOL      0.048312
     41 N4          7.7120    3.1830    0.2370 n         1 MOL     -0.383993
     42 C14         6.4230    3.5850    0.8640 c3        1 MOL     -0.112097
     43 C15         5.3320    3.6930   -0.1670 c         1 MOL      0.640041
     44 O9          5.5410    4.2110   -1.2760 o         1 MOL     -0.548416
     45 H17         8.1530    3.7970   -0.4390 hn        1 MOL      0.288601
     46 H18         6.5860    4.5630    1.3330 h1        1 MOL      0.095752
     47 H19         6.1180    2.8370    1.6060 h1        1 MOL      0.095752
     48 N5          4.0690    3.2970    0.1800 n         1 MOL     -0.665663
     49 C16         2.9590    3.0480   -0.7270 c3        1 MOL      0.291306
     50 C17         1.6250    3.7740   -0.3320 c         1 MOL      0.534459
     51 O10         1.5560    4.2090    0.7930 o         1 MOL     -0.538169
     52 C18         2.7280    1.4960   -0.7520 c3        1 MOL     -0.143527
     53 C19         3.9360    0.6600   -1.2640 c         1 MOL      0.643278
     54 N6          3.9930    0.2420   -2.4820 n         1 MOL     -0.592746
     55 O11         4.7890    0.3460   -0.4720 o         1 MOL     -0.682577
     56 H20         3.8980    3.1830    1.1650 hn        1 MOL      0.309608
     57 H21         3.2390    3.2300   -1.7590 h1        1 MOL     -0.009461
     58 H22         1.9240    1.2760   -1.4610 hc        1 MOL      0.068877
     59 H23         2.3920    1.1240    0.2180 hc        1 MOL      0.068877
     60 H24         3.2180    0.3090   -3.1210 hn        1 MOL      0.325404
     61 H25         4.7920   -0.3070   -2.7590 hn        1 MOL      0.325404
     62 N7          0.6900    3.9230   -1.2180 n         1 MOL     -0.483705
     63 C20        -0.5390    4.6630   -0.9320 c3        1 MOL      0.047712
     64 C21        -1.3860    5.1100   -2.1460 c         1 MOL      0.511173
     65 O12        -0.9920    4.8550   -3.2960 o         1 MOL     -0.544203
     66 H26         0.8680    3.7730   -2.2000 hn        1 MOL      0.283606
     67 H27        -0.2960    5.5420   -0.3350 h1        1 MOL      0.097507
     68 H28        -1.1820    4.0610   -0.2900 h1        1 MOL      0.097507
     69 N8         -2.5230    5.7430   -1.9480 n         1 MOL     -0.467230
     70 C22        -3.2670    6.1220   -0.6670 c3        1 MOL     -0.160287
     71 C23        -3.9780    5.0120    0.0790 c         1 MOL      0.484602
     72 O13        -4.2620    5.2000    1.3060 o         1 MOL     -0.490893
     73 C24        -4.2200    7.2230   -0.9520 c3        1 MOL      0.507916
     74 C25        -3.4980    8.4310   -1.4810 c3        1 MOL     -0.330256
     75 O14        -5.2890    6.7540   -1.7570 oh        1 MOL     -0.618154
     76 H29        -3.1130    5.7450   -2.7760 hn        1 MOL      0.297197
     77 H30        -2.5640    6.5230    0.0570 h1        1 MOL      0.109567
     78 H31        -4.6650    7.4350    0.0170 h1        1 MOL     -0.063598
     79 H32        -5.7170    6.1550   -1.1350 ho        1 MOL      0.372044
     80 H33        -2.5910    8.6370   -0.9070 hc        1 MOL      0.082451
     81 H34        -3.0670    8.3270   -2.4770 hc        1 MOL      0.082451
     82 H35        -4.1220    9.3190   -1.5930 hc        1 MOL      0.082451
     83 N9         -4.0880    3.8450   -0.5700 n         1 MOL     -0.400509
     84 C26        -4.5590    2.6210    0.1000 c3        1 MOL     -0.095125
     85 C27        -3.4750    1.8390    0.7740 c         1 MOL      0.705795
     86 O15        -2.2850    1.8980    0.4520 o         1 MOL     -0.554826
     87 C28        -5.4990    1.8470   -0.7330 c3        1 MOL     -0.010751
     88 C29        -4.8620    1.3480   -2.1010 c3        1 MOL      0.060063
     89 C30        -6.7880    2.7050   -1.1040 c3        1 MOL     -0.118185
     90 C31        -5.7710    0.4930   -2.9560 c3        1 MOL     -0.291604
     91 H36        -3.8810    3.7410   -1.5440 hn        1 MOL      0.272113
     92 H37        -5.1560    3.0580    0.9000 h1        1 MOL      0.134508
     93 H38        -5.7640    0.9780   -0.1310 hc        1 MOL      0.078293
     94 H39        -3.9480    0.7870   -1.9420 hc        1 MOL      0.046918
     95 H40        -4.4830    2.1770   -2.6920 hc        1 MOL      0.046918
     96 H41        -6.5890    3.5740   -1.7170 hc        1 MOL      0.020735
     97 H42        -7.4810    2.1100   -1.7050 hc        1 MOL      0.020735
     98 H43        -7.2060    3.1120   -0.1910 hc        1 MOL      0.020735
     99 H44        -6.1890   -0.2800   -2.3170 hc        1 MOL      0.064193
    100 H45        -6.6090    1.0730   -3.3440 hc        1 MOL      0.064193
    101 H46        -5.2400    0.0600   -3.7980 hc        1 MOL      0.064193
    102 N10        -3.8860    0.9670    1.7150 n         1 MOL     -0.632754
    103 C32        -5.0440    0.8270    2.5670 c3        1 MOL      0.342692
    104 C33        -6.0490   -0.1740    2.0270 c         1 MOL      0.562812
    105 O16        -5.7020   -1.2300    1.4580 o         1 MOL     -0.590706
    106 C34        -4.6520    0.5770    4.0170 c3        1 MOL     -0.273392
    107 C35        -3.7020    1.6010    4.5720 c         1 MOL      0.733666
    108 O17        -3.9140    2.8230    4.3870 o         1 MOL     -0.720062
    109 O18        -2.7580    1.1480    5.2720 o         1 MOL     -0.720062
    110 H47        -3.1250    0.4110    2.0890 hn        1 MOL      0.333168
    111 H48        -5.5870    1.7690    2.5380 h1        1 MOL     -0.052351
    112 H49        -4.1530   -0.3950    4.0380 hc        1 MOL      0.034524
    113 H50        -5.5520    0.4860    4.6310 hc        1 MOL      0.034524
    114 N11        -7.3260    0.0470    2.1910 n         1 MOL     -0.653851
    115 C36        -8.4280   -0.8640    1.7520 c3        1 MOL      0.352012
    116 C37        -8.8060   -0.4910    0.2890 c         1 MOL      0.292936
    117 O19        -8.9490    0.6870   -0.0310 o         1 MOL     -0.535509
    118 C38        -9.6030   -0.7500    2.7890 c3        1 MOL     -0.317076
    119 C39       -10.8450   -1.5430    2.4530 ca        1 MOL      0.101420
    120 C40       -12.1080   -1.0400    2.0960 ca        1 MOL     -0.146715
    121 C41       -10.8320   -2.9070    2.8520 ca        1 MOL     -0.146715
    122 C42       -13.2260   -1.8710    1.8920 ca        1 MOL     -0.124813
    123 C43       -11.8950   -3.7810    2.5960 ca        1 MOL     -0.124813
    124 C44       -13.0710   -3.2400    2.0580 ca        1 MOL     -0.105664
    125 H51        -7.6490    0.8700    2.6820 hn        1 MOL      0.318981
    126 H52        -7.9430   -1.8340    1.8550 h1        1 MOL      0.049466
    127 H53        -9.8210    0.3160    2.8770 hc        1 MOL      0.112032
    128 H54        -9.2440   -1.0470    3.7710 hc        1 MOL      0.112032
    129 H55       -12.2190    0.0200    1.9350 ha        1 MOL      0.114113
    130 H56        -9.9230   -3.3360    3.2560 ha        1 MOL      0.114113
    131 H57       -14.1530   -1.3820    1.6340 ha        1 MOL      0.116864
    132 H58       -11.7820   -4.8390    2.7670 ha        1 MOL      0.116864
    133 H59       -13.8680   -3.9520    1.9410 ha        1 MOL      0.093837
    134 N12        -9.1860   -1.4510   -0.5610 n         1 MOL      0.171898
    135 C45        -9.2530   -2.9130   -0.2970 c3        1 MOL      0.261967
    136 C46        -7.9310   -3.6060   -0.4600 c         1 MOL      0.187139
    137 O20        -7.8050   -4.7600   -0.0600 o         1 MOL     -0.556212
    138 C47       -10.3460   -3.4580   -1.1880 c3        1 MOL     -0.202070
    139 C48       -10.9450   -2.2180   -1.7410 c3        1 MOL      0.125806
    140 C49        -9.9010   -1.1450   -1.7500 c3        1 MOL     -0.227815
    141 H60        -9.4940   -3.0280    0.7590 h1        1 MOL     -0.020530
    142 H61       -10.0480   -4.0790   -2.0370 hc        1 MOL      0.070991
    143 H62       -11.0040   -4.0690   -0.5630 hc        1 MOL      0.070991
    144 H63       -11.3630   -2.4110   -2.7240 hc        1 MOL     -0.038040
    145 H64       -11.7210   -1.9510   -1.0200 hc        1 MOL     -0.038040
    146 H65        -9.2660   -1.3600   -2.6130 h1        1 MOL      0.097239
    147 H66       -10.3780   -0.1710   -1.7740 h1        1 MOL      0.097239
    148 N13        -6.9140   -3.0390   -1.0880 n         1 MOL     -0.087922
    149 C50        -5.7380   -3.8340   -1.5100 c3        1 MOL      0.091586
    150 C51        -6.2930   -4.6220   -2.7130 c         1 MOL      0.568674
    151 O21        -6.8530   -4.0450   -3.6410 o         1 MOL     -0.582447
    152 C52        -4.7320   -2.7150   -1.8190 c3        1 MOL      0.018459
    153 C53        -3.3580   -3.3330   -2.0940 c3        1 MOL     -0.205515
    154 C54        -2.3670   -2.2470   -2.5800 c         1 MOL      0.727735
    155 O22        -2.3040   -1.9170   -3.8000 o         1 MOL     -0.744304
    156 O23        -1.6950   -1.6380   -1.7530 o         1 MOL     -0.744304
    157 H67        -7.2360   -2.1920   -1.5320 hn        1 MOL      0.075658
    158 H68        -5.4260   -4.4750   -0.6900 h1        1 MOL      0.083535
    159 H69        -4.7200   -1.9780   -1.0120 hc        1 MOL      0.047059
    160 H70        -4.9990   -2.3190   -2.7890 hc        1 MOL      0.047059
    161 H71        -3.4090   -4.2470   -2.6820 hc        1 MOL     -0.012637
    162 H72        -2.9450   -3.6800   -1.1530 hc        1 MOL     -0.012637
    163 N14        -6.1350   -5.9730   -2.8570 n         1 MOL     -0.427631
    164 C55        -6.1210   -6.9690   -1.7720 c3        1 MOL     -0.091804
    165 H73        -6.1320   -7.9720   -2.1990 h1        1 MOL      0.067548
    166 H74        -5.2200   -6.8400   -1.1710 h1        1 MOL      0.067548
    167 H75        -7.0000   -6.8330   -1.1420 h1        1 MOL      0.067548
    168 H76        -6.4490   -6.2740   -3.7660 hn        1 MOL      0.273613
    169 Ca1         6.4230   -1.1870    0.9660 Ca        1 MOL      1.742897
    170 O24         5.1070    0.6220    2.6100 oh        1 MOL     -0.817537
    171 H77         4.3040    0.3170    3.0510 ho        1 MOL      0.412662
    172 H78         5.4670    1.2740    3.2080 ho        1 MOL      0.412662
    173 O25         4.1980   -2.5900    0.5220 oh        1 MOL     -0.817537
    174 H79         3.8320   -3.0030    1.2980 ho        1 MOL      0.412662
    175 H80         3.5140   -2.6470   -0.1400 ho        1 MOL      0.412662
    176 O26         5.5100   -2.4970    3.1360 oh        1 MOL     -0.817537
    177 H81         6.0690   -2.3390    3.9010 ho        1 MOL      0.412662
    178 H82         4.7240   -2.9130    3.5010 ho        1 MOL      0.412662
@<TRIPOS>BOND
     1    1    2 1   
     2    1    4 1   
     3    1    5 1   
     4    1    6 1   
     5    2    3 2   
     6    2    7 1   
     7    7    8 1   
     8    7   15 1   
     9    8    9 1   
    10    8   11 1   
    11    8   16 1   
    12    9   10 2   
    13    9   19 1   
    14   11   12 1   
    15   11   17 1   
    16   11   18 1   
    17   12   13 1   
    18   12   14 1   
    19   19   20 1   
    20   19   24 1   
    21   20   21 1   
    22   20   23 1   
    23   20   25 1   
    24   21   22 2   
    25   21   29 1   
    26   23   26 1   
    27   23   27 1   
    28   23   28 1   
    29   29   30 1   
    30   29   37 1   
    31   30   31 1   
    32   30   33 1   
    33   30   38 1   
    34   31   32 2   
    35   31   41 1   
    36   33   34 1   
    37   33   39 1   
    38   33   40 1   
    39   34   35 1   
    40   34   36 1   
    41   41   42 1   
    42   41   45 1   
    43   42   43 1   
    44   42   46 1   
    45   42   47 1   
    46   43   44 2   
    47   43   48 1   
    48   48   49 1   
    49   48   56 1   
    50   49   50 1   
    51   49   52 1   
    52   49   57 1   
    53   50   51 2   
    54   50   62 1   
    55   52   53 1   
    56   52   58 1   
    57   52   59 1   
    58   53   54 1   
    59   53   55 2   
    60   54   60 1   
    61   54   61 1   
    62   62   63 1   
    63   62   66 1   
    64   63   64 1   
    65   63   67 1   
    66   63   68 1   
    67   64   65 2   
    68   64   69 1   
    69   69   70 1   
    70   69   76 1   
    71   70   71 1   
    72   70   73 1   
    73   70   77 1   
    74   71   72 2   
    75   71   83 1   
    76   73   74 1   
    77   73   75 1   
    78   73   78 1   
    79   74   80 1   
    80   74   81 1   
    81   74   82 1   
    82   75   79 1   
    83   83   84 1   
    84   83   91 1   
    85   84   85 1   
    86   84   87 1   
    87   84   92 1   
    88   85   86 2   
    89   85  102 1   
    90   87   88 1   
    91   87   89 1   
    92   87   93 1   
    93   88   90 1   
    94   88   94 1   
    95   88   95 1   
    96   89   96 1   
    97   89   97 1   
    98   89   98 1   
    99   90   99 1   
   100   90  100 1   
   101   90  101 1   
   102  102  103 1   
   103  102  110 1   
   104  103  104 1   
   105  103  106 1   
   106  103  111 1   
   107  104  105 2   
   108  104  114 1   
   109  106  107 1   
   110  106  112 1   
   111  106  113 1   
   112  107  108 1   
   113  107  109 1   
   114  114  115 1   
   115  114  125 1   
   116  115  116 1   
   117  115  118 1   
   118  115  126 1   
   119  116  117 2   
   120  116  134 1   
   121  118  119 1   
   122  118  127 1   
   123  118  128 1   
   124  119  120 ar  
   125  119  121 ar  
   126  120  122 ar  
   127  120  129 1   
   128  121  123 ar  
   129  121  130 1   
   130  122  124 ar  
   131  122  131 1   
   132  123  124 ar  
   133  123  132 1   
   134  124  133 1   
   135  134  135 1   
   136  134  140 1   
   137  135  136 1   
   138  135  138 1   
   139  135  141 1   
   140  136  137 2   
   141  136  148 1   
   142  138  139 1   
   143  138  142 1   
   144  138  143 1   
   145  139  140 1   
   146  139  144 1   
   147  139  145 1   
   148  140  146 1   
   149  140  147 1   
   150  148  149 1   
   151  148  157 1   
   152  149  150 1   
   153  149  152 1   
   154  149  158 1   
   155  150  151 2   
   156  150  163 1   
   157  152  153 1   
   158  152  159 1   
   159  152  160 1   
   160  153  154 1   
   161  153  161 1   
   162  153  162 1   
   163  154  155 1   
   164  154  156 1   
   165  163  164 1   
   166  163  168 1   
   167  164  165 1   
   168  164  166 1   
   169  164  167 1   
   170  170  171 1   
   171  170  172 1   
   172  173  174 1   
   173  173  175 1   
   174  176  177 1   
   175  176  178 1   
@<TRIPOS>SUBSTRUCTURE
     1 MOL         1 TEMP              0 ****  ****    0 ROOT
