@<TRIPOS>MOLECULE
MOL
  181   177     1     0     0
SMALL
resp


@<TRIPOS>ATOM
      1 C1         -1.9470   -2.0840   -5.0180 c3        1 MOL     -0.399487
      2 C2         -2.7600   -1.6340   -3.7890 c         1 MOL      0.671849
      3 O1         -2.2240   -1.2230   -2.7250 o         1 MOL     -0.574406
      4 H1         -1.1710   -1.3480   -5.2290 hc        1 MOL      0.101943
      5 H2         -1.4850   -3.0500   -4.8140 hc        1 MOL      0.101943
      6 H3         -2.6090   -2.1710   -5.8790 hc        1 MOL      0.101943
      7 N1         -4.0900   -1.5570   -3.9660 n         1 MOL     -0.584504
      8 C3         -5.0610   -0.7630   -3.0930 c3        1 MOL      0.416516
      9 C4         -5.6190   -1.5340   -1.8790 c         1 MOL      0.305780
     10 O2         -6.4140   -0.9940   -1.1150 o         1 MOL     -0.388372
     11 C5         -6.1090   -0.1380   -3.9870 c3        1 MOL     -0.093061
     12 C6         -6.7740    1.0870   -3.3710 c         1 MOL      0.668383
     13 O3         -7.9320    1.4030   -3.5610 o         1 MOL     -0.695256
     14 O4         -6.1540    1.7770   -2.4970 o         1 MOL     -0.695256
     15 H4         -4.4760   -2.0680   -4.7510 hn        1 MOL      0.264380
     16 H5         -4.4330    0.0350   -2.6980 h1        1 MOL     -0.000958
     17 H6         -6.8860   -0.8650   -4.2170 hc        1 MOL     -0.031524
     18 H7         -5.7520    0.1790   -4.9640 hc        1 MOL     -0.031524
     19 N2         -5.4590   -2.8790   -1.8800 n         1 MOL     -0.412167
     20 C7         -6.0990   -3.8460   -0.9650 c3        1 MOL      0.233364
     21 C8         -5.9230   -3.3810    0.5000 c         1 MOL      0.291627
     22 O5         -6.8630   -3.3810    1.2910 o         1 MOL     -0.482716
     23 C9         -7.5660   -4.1360   -1.3250 c3        1 MOL     -0.355598
     24 H8         -4.8360   -3.2830   -2.5660 hn        1 MOL      0.191823
     25 H9         -5.4740   -4.7290   -1.1030 h1        1 MOL      0.036654
     26 H10        -7.8260   -4.5020   -2.3200 hc        1 MOL      0.098401
     27 H11        -7.9260   -4.9080   -0.6350 hc        1 MOL      0.098401
     28 H12        -8.1750   -3.2670   -1.1170 hc        1 MOL      0.098401
     29 N3         -4.6520   -3.1150    0.8780 n         1 MOL     -0.066340
     30 C10        -4.2160   -2.7090    2.2350 c3        1 MOL      0.076602
     31 C11        -5.0050   -1.5770    2.8000 c         1 MOL      0.500186
     32 O6         -5.3520   -1.5130    3.9770 o         1 MOL     -0.558984
     33 C12        -4.1300   -3.9160    3.2200 c3        1 MOL     -0.130810
     34 C13        -3.3240   -5.1070    2.6620 c         1 MOL      0.606364
     35 O7         -2.1640   -4.9430    2.1830 o         1 MOL     -0.683657
     36 O8         -3.8290   -6.1980    2.6250 o         1 MOL     -0.683657
     37 H13        -3.9200   -3.3570    0.2130 hn        1 MOL      0.124815
     38 H14        -3.1770   -2.3870    2.1260 h1        1 MOL     -0.058670
     39 H15        -5.1390   -4.2260    3.5030 hc        1 MOL      0.040885
     40 H16        -3.6200   -3.5920    4.1430 hc        1 MOL      0.040885
     41 N4         -5.3490   -0.5450    1.9370 n         1 MOL     -0.136246
     42 C14        -6.1460    0.6580    2.3280 c3        1 MOL     -0.390185
     43 C15        -5.2560    1.7870    2.9850 c         1 MOL      0.711810
     44 O9         -5.7930    2.7600    3.4350 o         1 MOL     -0.586119
     45 H17        -4.9740   -0.7040    1.0050 hn        1 MOL      0.130879
     46 H18        -6.8550    0.2870    3.0680 h1        1 MOL      0.179206
     47 H19        -6.6970    1.1030    1.5100 h1        1 MOL      0.179206
     48 N5         -3.8860    1.6490    2.9600 n         1 MOL     -0.441744
     49 C16        -2.9790    2.7930    3.3080 c3        1 MOL      0.208303
     50 C17        -3.0810    3.8960    2.1440 c         1 MOL      0.438045
     51 O10        -3.3040    3.5110    0.9810 o         1 MOL     -0.468377
     52 C18        -1.5620    2.2560    3.6200 c3        1 MOL     -0.456165
     53 C19        -1.6570    1.2370    4.8180 c         1 MOL      0.568962
     54 N6         -1.9500    0.0020    4.5400 n         1 MOL     -0.624683
     55 O11        -1.6700    1.5080    5.9970 o         1 MOL     -0.537895
     56 H20        -3.5250    0.8850    2.3930 hn        1 MOL      0.233121
     57 H21        -3.3630    3.2590    4.2160 h1        1 MOL      0.047126
     58 H22        -0.9000    3.0560    3.9400 hc        1 MOL      0.147214
     59 H23        -1.1540    1.7880    2.7160 hc        1 MOL      0.147214
     60 H24        -1.8000   -0.2780    3.5790 hn        1 MOL      0.326353
     61 H25        -1.8620   -0.7760    5.1790 hn        1 MOL      0.326353
     62 N7         -3.0080    5.2160    2.4530 n         1 MOL     -0.373667
     63 C20        -3.1150    6.3610    1.4740 c3        1 MOL     -0.131962
     64 C21        -1.7310    6.9800    1.3260 c         1 MOL      0.584696
     65 O12        -0.9520    7.0140    2.3090 o         1 MOL     -0.536556
     66 H26        -2.7940    5.5320    3.3790 hn        1 MOL      0.263630
     67 H27        -3.7930    7.0860    1.9200 h1        1 MOL      0.111237
     68 H28        -3.6400    6.0090    0.5830 h1        1 MOL      0.111237
     69 N8         -1.3490    7.2630    0.0680 n         1 MOL     -0.579777
     70 C22         0.0690    7.5080   -0.3200 c3        1 MOL      0.242157
     71 C23         0.6920    6.2020   -0.8620 c         1 MOL      0.299440
     72 O13         1.7820    6.3160   -1.4300 o         1 MOL     -0.535135
     73 C24         0.0760    8.6980   -1.2950 c3        1 MOL      0.309516
     74 C25        -0.6540    8.5740   -2.6440 c3        1 MOL     -0.300877
     75 O14        -0.5000    9.8510   -0.5860 oh        1 MOL     -0.639427
     76 H29        -1.9960    7.1010   -0.6820 hn        1 MOL      0.291129
     77 H30         0.6610    7.7680    0.5670 h1        1 MOL      0.089026
     78 H31         1.1530    8.8740   -1.4290 h1        1 MOL     -0.014339
     79 H32        -0.6810   10.5280   -1.2440 ho        1 MOL      0.391747
     80 H33        -0.6150    9.5760   -3.0840 hc        1 MOL      0.076553
     81 H34        -0.2850    7.7910   -3.3110 hc        1 MOL      0.076553
     82 H35        -1.6990    8.3680   -2.4340 hc        1 MOL      0.076553
     83 N9          0.1140    5.0190   -0.7140 n         1 MOL     -0.142382
     84 C26         0.5010    3.8120   -1.4950 c3        1 MOL     -0.070460
     85 C27         0.6180    2.5960   -0.5780 c         1 MOL      0.442664
     86 O15         0.0130    2.4390    0.4940 o         1 MOL     -0.493734
     87 C28        -0.5470    3.5330   -2.6590 c3        1 MOL      0.200091
     88 C29        -1.9520    2.9820   -2.2190 c3        1 MOL     -0.162575
     89 C30        -0.5730    4.8610   -3.4940 c3        1 MOL     -0.361508
     90 C31        -2.8930    2.9370   -3.4950 c3        1 MOL     -0.065026
     91 H36        -0.7160    4.9860   -0.1410 hn        1 MOL      0.165160
     92 H37         1.4680    4.0290   -1.9460 h1        1 MOL      0.090974
     93 H38        -0.1530    2.6960   -3.2470 hc        1 MOL     -0.002738
     94 H39        -2.4130    3.5790   -1.4290 hc        1 MOL      0.113592
     95 H40        -1.7870    1.9190   -2.0160 hc        1 MOL      0.113592
     96 H41         0.3270    5.4740   -3.4590 hc        1 MOL      0.088680
     97 H42        -0.8500    4.5740   -4.5060 hc        1 MOL      0.088680
     98 H43        -1.3890    5.4560   -3.0800 hc        1 MOL      0.088680
     99 H44        -2.2860    2.5480   -4.3010 hc        1 MOL      0.010820
    100 H45        -3.7420    2.2590   -3.4120 hc        1 MOL      0.010820
    101 H46        -3.3180    3.9070   -3.7310 hc        1 MOL      0.010820
    102 N10         1.4870    1.6250   -0.9060 n         1 MOL     -0.537299
    103 C32         1.5220    0.2230   -0.3100 c3        1 MOL      0.381055
    104 C33         2.9240   -0.0920    0.1780 c         1 MOL      0.367386
    105 O16         3.4490   -1.2400    0.1610 o         1 MOL     -0.349569
    106 C34         0.8180   -0.6940   -1.3170 c3        1 MOL     -0.134624
    107 C35         0.5270   -2.0950   -0.7370 c         1 MOL      0.782687
    108 O17         0.1660   -2.9830   -1.4830 o         1 MOL     -0.753582
    109 O18         0.7110   -2.3910    0.4770 o         1 MOL     -0.753582
    110 H47         1.9910    1.6460   -1.7850 hn        1 MOL      0.260752
    111 H48         0.8420    0.2290    0.5410 h1        1 MOL     -0.012133
    112 H49         1.4580   -0.7690   -2.2020 hc        1 MOL      0.025389
    113 H50        -0.0810   -0.2120   -1.6930 hc        1 MOL      0.025389
    114 N11         3.6220    0.9810    0.6850 n         1 MOL     -0.558921
    115 C36         5.0510    0.9560    1.1450 c3        1 MOL      0.402420
    116 C37         5.9090    0.3300    0.0640 c         1 MOL      0.087176
    117 O19         5.8290    0.8300   -1.0970 o         1 MOL     -0.435648
    118 C38         5.4220    2.3620    1.6250 c3        1 MOL     -0.319317
    119 C39         6.7950    2.2830    2.2820 ca        1 MOL      0.085528
    120 C40         6.8980    1.8910    3.6760 ca        1 MOL     -0.163899
    121 C41         7.9350    2.2760    1.4790 ca        1 MOL     -0.163899
    122 C42         8.1620    1.5540    4.2610 ca        1 MOL     -0.140269
    123 C43         9.1710    1.8740    2.0640 ca        1 MOL     -0.140269
    124 C44         9.2980    1.5780    3.4140 ca        1 MOL     -0.078532
    125 H51         3.0780    1.8310    0.7710 hn        1 MOL      0.305941
    126 H52         5.0450    0.2600    1.9920 h1        1 MOL     -0.030714
    127 H53         4.7610    2.7400    2.4030 hc        1 MOL      0.132892
    128 H54         5.4530    2.8950    0.6770 hc        1 MOL      0.132892
    129 H55         6.0180    1.8930    4.3100 ha        1 MOL      0.140724
    130 H56         7.8050    2.5200    0.4390 ha        1 MOL      0.140724
    131 H57         8.2740    1.1420    5.2550 ha        1 MOL      0.123790
    132 H58        10.0530    1.8310    1.4460 ha        1 MOL      0.123790
    133 H59        10.2650    1.4450    3.8830 ha        1 MOL      0.094869
    134 N12         6.7340   -0.6970    0.3660 n         1 MOL      0.064766
    135 C45         7.6630   -1.3040   -0.5480 c3        1 MOL      0.053461
    136 C46         7.1310   -1.9400   -1.7710 c         1 MOL      0.214904
    137 O20         7.8060   -2.1090   -2.7700 o         1 MOL     -0.488584
    138 C47         8.5760   -2.2940    0.1770 c3        1 MOL      0.122500
    139 C48         8.5110   -1.7100    1.5800 c3        1 MOL     -0.147329
    140 C49         7.1380   -1.0780    1.7490 c3        1 MOL      0.145684
    141 H60         8.3610   -0.5150   -0.8320 h1        1 MOL      0.043867
    142 H61         8.1890   -3.3170    0.2410 hc        1 MOL      0.011153
    143 H62         9.5460   -2.4410   -0.2820 hc        1 MOL      0.011153
    144 H63         8.6500   -2.4450    2.3680 hc        1 MOL      0.012927
    145 H64         9.2560   -0.9110    1.5820 hc        1 MOL      0.012927
    146 H65         6.4750   -1.8750    2.0930 h1        1 MOL      0.008770
    147 H66         7.1280   -0.2390    2.4460 h1        1 MOL      0.008770
    148 N13         5.8710   -2.4030   -1.6690 n         1 MOL     -0.101981
    149 C50         5.0760   -2.9160   -2.7810 c3        1 MOL     -0.140981
    150 C51         4.6460   -1.9420   -3.9090 c         1 MOL      0.397068
    151 O21         4.4830   -2.2820   -5.0680 o         1 MOL     -0.545070
    152 C52         3.7540   -3.4870   -2.1500 c3        1 MOL      0.176589
    153 C53         3.9870   -4.5290   -1.1790 c3        1 MOL     -0.368580
    154 C54         2.7480   -5.0660   -0.5180 c         1 MOL      0.773954
    155 O22         1.8400   -5.6860   -1.1380 o         1 MOL     -0.737515
    156 O23         2.6740   -5.0020    0.6870 o         1 MOL     -0.737515
    157 H67         5.4000   -2.1320   -0.8240 hn        1 MOL      0.049224
    158 H68         5.6030   -3.7750   -3.2070 h1        1 MOL      0.120850
    159 H69         3.1740   -3.9570   -2.9490 hc        1 MOL      0.001769
    160 H70         3.1750   -2.6590   -1.7440 hc        1 MOL      0.001769
    161 H71         4.5530   -4.2250   -0.2980 hc        1 MOL      0.066202
    162 H72         4.4960   -5.2880   -1.7660 hc        1 MOL      0.066202
    163 N14         4.6940   -0.6640   -3.5660 n         1 MOL      0.013632
    164 C55         4.5560    0.4590   -4.4610 c3        1 MOL     -0.284408
    165 H73         4.9310    0.1850   -5.4470 h1        1 MOL      0.096992
    166 H74         3.5040    0.7360   -4.5370 h1        1 MOL      0.096992
    167 H75         5.1280    1.3030   -4.0770 h1        1 MOL      0.096992
    168 H76         4.8170   -0.4270   -2.5880 hn        1 MOL      0.140977
    169 Ca1        -0.1070   -4.9150    0.7320 Ca        1 MOL      1.703274
    170 O24         0.8990   -4.1820    3.1680 oh        1 MOL     -0.849319
    171 H77         0.5030   -4.7530    3.8360 ho        1 MOL      0.413783
    172 H78         1.8420   -4.2620    3.3080 ho        1 MOL      0.413783
    173 O25        -1.0080   -7.3410   -0.4470 oh        1 MOL     -0.849319
    174 H79        -1.4560   -7.9540    0.1240 ho        1 MOL      0.413783
    175 H80        -1.5960   -7.2440   -1.1980 ho        1 MOL      0.413783
    176 O26         0.3530   -6.9810    2.4250 oh        1 MOL     -0.849319
    177 H81         0.6890   -7.7860    2.0420 ho        1 MOL      0.413783
    178 H82         0.3090   -7.1540    3.3610 ho        1 MOL      0.413783
    179 O27        -2.2240   -4.1790   -0.9830 oh        1 MOL     -0.849319
    180 H83        -1.6350   -3.5200   -1.3680 ho        1 MOL      0.413783
    181 H84        -2.6750   -4.5660   -1.7320 ho        1 MOL      0.413783
@<TRIPOS>BOND
     1    1    2 1   
     2    1    4 1   
     3    1    5 1   
     4    1    6 1   
     5    2    3 2   
     6    2    7 1   
     7    7    8 1   
     8    7   15 1   
     9    8    9 1   
    10    8   11 1   
    11    8   16 1   
    12    9   10 2   
    13    9   19 1   
    14   11   12 1   
    15   11   17 1   
    16   11   18 1   
    17   12   13 1   
    18   12   14 1   
    19   19   20 1   
    20   19   24 1   
    21   20   21 1   
    22   20   23 1   
    23   20   25 1   
    24   21   22 2   
    25   21   29 1   
    26   23   26 1   
    27   23   27 1   
    28   23   28 1   
    29   29   30 1   
    30   29   37 1   
    31   30   31 1   
    32   30   33 1   
    33   30   38 1   
    34   31   32 2   
    35   31   41 1   
    36   33   34 1   
    37   33   39 1   
    38   33   40 1   
    39   34   35 1   
    40   34   36 1   
    41   41   42 1   
    42   41   45 1   
    43   42   43 1   
    44   42   46 1   
    45   42   47 1   
    46   43   44 2   
    47   43   48 1   
    48   48   49 1   
    49   48   56 1   
    50   49   50 1   
    51   49   52 1   
    52   49   57 1   
    53   50   51 2   
    54   50   62 1   
    55   52   53 1   
    56   52   58 1   
    57   52   59 1   
    58   53   54 1   
    59   53   55 2   
    60   54   60 1   
    61   54   61 1   
    62   62   63 1   
    63   62   66 1   
    64   63   64 1   
    65   63   67 1   
    66   63   68 1   
    67   64   65 2   
    68   64   69 1   
    69   69   70 1   
    70   69   76 1   
    71   70   71 1   
    72   70   73 1   
    73   70   77 1   
    74   71   72 2   
    75   71   83 1   
    76   73   74 1   
    77   73   75 1   
    78   73   78 1   
    79   74   80 1   
    80   74   81 1   
    81   74   82 1   
    82   75   79 1   
    83   83   84 1   
    84   83   91 1   
    85   84   85 1   
    86   84   87 1   
    87   84   92 1   
    88   85   86 2   
    89   85  102 1   
    90   87   88 1   
    91   87   89 1   
    92   87   93 1   
    93   88   90 1   
    94   88   94 1   
    95   88   95 1   
    96   89   96 1   
    97   89   97 1   
    98   89   98 1   
    99   90   99 1   
   100   90  100 1   
   101   90  101 1   
   102  102  103 1   
   103  102  110 1   
   104  103  104 1   
   105  103  106 1   
   106  103  111 1   
   107  104  105 2   
   108  104  114 1   
   109  106  107 1   
   110  106  112 1   
   111  106  113 1   
   112  107  108 1   
   113  107  109 1   
   114  114  115 1   
   115  114  125 1   
   116  115  116 1   
   117  115  118 1   
   118  115  126 1   
   119  116  117 2   
   120  116  134 1   
   121  118  119 1   
   122  118  127 1   
   123  118  128 1   
   124  119  120 ar  
   125  119  121 ar  
   126  120  122 ar  
   127  120  129 1   
   128  121  123 ar  
   129  121  130 1   
   130  122  124 ar  
   131  122  131 1   
   132  123  124 ar  
   133  123  132 1   
   134  124  133 1   
   135  134  135 1   
   136  134  140 1   
   137  135  136 1   
   138  135  138 1   
   139  135  141 1   
   140  136  137 2   
   141  136  148 1   
   142  138  139 1   
   143  138  142 1   
   144  138  143 1   
   145  139  140 1   
   146  139  144 1   
   147  139  145 1   
   148  140  146 1   
   149  140  147 1   
   150  148  149 1   
   151  148  157 1   
   152  149  150 1   
   153  149  152 1   
   154  149  158 1   
   155  150  151 2   
   156  150  163 1   
   157  152  153 1   
   158  152  159 1   
   159  152  160 1   
   160  153  154 1   
   161  153  161 1   
   162  153  162 1   
   163  154  155 1   
   164  154  156 1   
   165  163  164 1   
   166  163  168 1   
   167  164  165 1   
   168  164  166 1   
   169  164  167 1   
   170  170  171 1   
   171  170  172 1   
   172  173  174 1   
   173  173  175 1   
   174  176  177 1   
   175  176  178 1   
   176  179  180 1   
   177  179  181 1   
@<TRIPOS>SUBSTRUCTURE
     1 MOL         1 TEMP              0 ****  ****    0 ROOT
