@<TRIPOS>MOLECULE
MOL
  179   176     1     0     0
SMALL
resp


@<TRIPOS>ATOM
      1 C1          1.4530   -4.1840    5.9470 c3        1 MOL     -0.424448
      2 C2          1.6380   -3.7370    4.4850 c         1 MOL      0.716747
      3 O1          0.6480   -3.7270    3.7350 o         1 MOL     -0.600099
      4 H1          1.0290   -5.1880    5.9680 hc        1 MOL      0.113927
      5 H2          2.4190   -4.1860    6.4530 hc        1 MOL      0.113927
      6 H3          0.7780   -3.4950    6.4550 hc        1 MOL      0.113927
      7 N1          2.8350   -3.5010    4.0290 n         1 MOL     -0.508964
      8 C3          3.0170   -3.2220    2.6300 c3        1 MOL      0.130440
      9 C4          3.3290   -4.4470    1.7410 c         1 MOL      0.516269
     10 O2          4.3300   -5.1180    1.8850 o         1 MOL     -0.550214
     11 C5          4.0650   -2.1200    2.6040 c3        1 MOL     -0.097947
     12 C6          3.9620   -1.2810    1.3560 c         1 MOL      0.627400
     13 O3          4.3230   -0.0740    1.4100 o         1 MOL     -0.682646
     14 O4          3.4150   -1.6690    0.3020 o         1 MOL     -0.682646
     15 H4          3.6050   -3.3630    4.6620 hn        1 MOL      0.308680
     16 H5          2.0850   -2.7660    2.2780 h1        1 MOL     -0.206539
     17 H6          5.0650   -2.5450    2.6840 hc        1 MOL      0.040684
     18 H7          3.8270   -1.4280    3.4140 hc        1 MOL      0.040684
     19 N2          2.5140   -4.5790    0.7180 n         1 MOL     -0.153756
     20 C7          2.6120   -5.4510   -0.4370 c3        1 MOL     -0.263319
     21 C8          3.6410   -5.0870   -1.5170 c         1 MOL      0.621667
     22 O5          3.9360   -5.9390   -2.3430 o         1 MOL     -0.583944
     23 C9          1.1540   -5.5290   -1.0200 c3        1 MOL      0.138524
     24 C10         0.2640   -6.4240   -0.1420 c3        1 MOL     -0.440615
     25 C11        -1.0390   -6.8640   -0.8000 c3        1 MOL      0.062063
     26 C12        -0.7390   -8.1920   -1.4440 c3        1 MOL      0.084663
     27 N3         -1.9990   -8.5780   -2.1280 n4        1 MOL     -0.334898
     28 H8          1.7400   -3.9330    0.6550 hn        1 MOL      0.134325
     29 H9          2.9390   -6.4200   -0.0880 h1        1 MOL      0.140606
     30 H10         1.1260   -5.7880   -2.0790 hc        1 MOL      0.009751
     31 H11         0.7130   -4.5290   -1.1040 hc        1 MOL      0.009751
     32 H12         0.1200   -5.8210    0.7480 hc        1 MOL      0.145609
     33 H13         0.8370   -7.3000    0.1570 hc        1 MOL      0.145609
     34 H14        -1.4420   -6.1390   -1.5080 hc        1 MOL      0.018539
     35 H15        -1.8690   -7.0390   -0.1190 hc        1 MOL      0.018539
     36 H16        -0.3390   -8.9050   -0.7170 hx        1 MOL      0.080839
     37 H17         0.1030   -8.2170   -2.1340 hx        1 MOL      0.080839
     38 H18        -2.1220   -8.2010   -3.0630 hn        1 MOL      0.265820
     39 H19        -1.9530   -9.5810   -2.2750 hn        1 MOL      0.265820
     40 H20        -2.8270   -8.3630   -1.5980 hn        1 MOL      0.265820
     41 N4          4.2510   -3.9100   -1.5440 n         1 MOL     -0.349617
     42 C13         5.3410   -3.4530   -2.4330 c3        1 MOL      0.014146
     43 C14         6.5100   -2.7700   -1.6900 c         1 MOL      0.389439
     44 O6          7.6260   -2.7310   -2.2610 o         1 MOL     -0.529220
     45 C15         4.7850   -2.5120   -3.5260 c3        1 MOL     -0.353053
     46 C16         4.0290   -1.3580   -2.9930 c         1 MOL      0.882462
     47 O7          2.8000   -1.2930   -3.1390 o         1 MOL     -0.824184
     48 O8          4.5510   -0.4570   -2.2410 o         1 MOL     -0.824184
     49 H21         3.9770   -3.1430   -0.9520 hn        1 MOL      0.257708
     50 H22         5.8760   -4.2820   -2.9060 h1        1 MOL      0.126461
     51 H23         4.1590   -3.0640   -4.2250 hc        1 MOL      0.115766
     52 H24         5.6310   -2.0410   -4.0350 hc        1 MOL      0.115766
     53 N5          6.3260   -2.4320   -0.4260 n         1 MOL     -0.041634
     54 C17         7.3200   -1.7880    0.4000 c3        1 MOL     -0.310652
     55 C18         7.6980   -0.3470    0.1410 c         1 MOL      0.567604
     56 O9          8.6500    0.1950    0.6380 o         1 MOL     -0.544687
     57 H25         5.3930   -2.5250   -0.0580 hn        1 MOL      0.076626
     58 H26         8.2400   -2.3490    0.2450 h1        1 MOL      0.141485
     59 H27         7.0830   -1.7370    1.4700 h1        1 MOL      0.141485
     60 N6          6.9760    0.3510   -0.8040 n         1 MOL     -0.203954
     61 C19         7.1680    1.7670   -1.2640 c3        1 MOL      0.183339
     62 C20         5.8620    2.6440   -1.1310 c         1 MOL      0.423327
     63 O10         4.8000    2.0940   -0.7550 o         1 MOL     -0.583530
     64 C21         7.7910    1.6320   -2.6890 c3        1 MOL     -0.250717
     65 C22         8.3670    2.9220   -3.3010 c         1 MOL      0.700847
     66 N7          8.5990    2.9970   -4.6210 n         1 MOL     -0.871973
     67 O11         8.5910    3.8950   -2.5940 o         1 MOL     -0.576509
     68 H28         6.1120   -0.0080   -1.1970 hn        1 MOL      0.140393
     69 H29         7.9480    2.1380   -0.5960 h1        1 MOL      0.025851
     70 H30         6.9740    1.3830   -3.3680 hc        1 MOL      0.075039
     71 H31         8.5740    0.8790   -2.6910 hc        1 MOL      0.075039
     72 H32         8.4240    2.2340   -5.2510 hn        1 MOL      0.393525
     73 H33         9.1530    3.8020   -4.8910 hn        1 MOL      0.393525
     74 N8          5.9780    3.9050   -1.3940 n         1 MOL     -0.219393
     75 C23         4.8810    4.8890   -1.3210 c3        1 MOL     -0.304809
     76 C24         4.0990    4.8160    0.0420 c         1 MOL      0.693593
     77 O12         4.7210    4.6630    1.0500 o         1 MOL     -0.500487
     78 H34         6.9190    4.2290   -1.5050 hn        1 MOL      0.282242
     79 H35         4.1840    4.5720   -2.0980 h1        1 MOL      0.114333
     80 H36         5.3620    5.8630   -1.3760 h1        1 MOL      0.114333
     81 N9          2.7520    4.8330    0.0290 n         1 MOL     -0.728850
     82 C25         1.8900    4.5430    1.2320 c3        1 MOL      0.574149
     83 C26         1.8090    3.1100    1.6450 c         1 MOL      0.236252
     84 O13         2.5190    2.3190    1.0400 o         1 MOL     -0.365061
     85 C27         0.4900    5.1510    0.9180 c3        1 MOL     -0.139070
     86 C28         0.3000    6.6190    0.5630 ca        1 MOL     -0.094030
     87 C29        -0.3850    7.0260   -0.5800 ca        1 MOL     -0.024701
     88 C30         0.8360    7.6270    1.4530 ca        1 MOL     -0.024701
     89 C31        -0.5480    8.3950   -0.9080 ca        1 MOL     -0.328472
     90 C32         0.7240    8.9800    1.0890 ca        1 MOL     -0.328472
     91 C33        -0.0310    9.3630   -0.0500 ca        1 MOL      0.351392
     92 O14        -0.2150   10.7300   -0.1320 oh        1 MOL     -0.425284
     93 H37         2.3460    5.1560   -0.8420 hn        1 MOL      0.318871
     94 H38         2.3120    5.0980    2.0610 h1        1 MOL     -0.003831
     95 H39        -0.0160    4.9900    1.8750 hc        1 MOL      0.012877
     96 H40         0.1130    4.5660    0.0860 hc        1 MOL      0.012877
     97 H41        -0.7640    6.3350   -1.3220 ha        1 MOL      0.103585
     98 H42         1.2490    7.2990    2.3910 ha        1 MOL      0.103585
     99 H43        -1.1250    8.6600   -1.7810 ha        1 MOL      0.174132
    100 H44         1.0700    9.7330    1.7780 ha        1 MOL      0.174132
    101 H45        -0.6420   10.8990   -0.9720 ho        1 MOL      0.333471
    102 N10         0.8920    2.6760    2.4950 n         1 MOL     -0.539110
    103 C34         0.5020    1.3200    2.8850 c3        1 MOL      0.062648
    104 C35         0.0450    0.3400    1.7530 c         1 MOL      0.223454
    105 O15         0.8820   -0.0430    0.9090 o         1 MOL     -0.073459
    106 C36         1.5700    0.5980    3.8070 c3        1 MOL      0.444401
    107 C37         0.9070   -0.3320    4.8360 c3        1 MOL      0.009016
    108 C38         2.7190    1.4920    4.3210 c3        1 MOL     -0.504616
    109 C39        -0.0320    0.2460    5.9460 c3        1 MOL     -0.214782
    110 H46         0.3810    3.3150    3.0810 hn        1 MOL      0.305894
    111 H47        -0.3240    1.5010    3.5720 h1        1 MOL      0.057852
    112 H48         2.1450   -0.0410    3.1360 hc        1 MOL     -0.047681
    113 H49         1.7360   -0.7090    5.4290 hc        1 MOL      0.009550
    114 H50         0.5050   -1.2290    4.3620 hc        1 MOL      0.009550
    115 H51         3.3950    0.7940    4.8120 hc        1 MOL      0.120063
    116 H52         3.3280    2.0160    3.5760 hc        1 MOL      0.120063
    117 H53         2.3050    2.2280    5.0050 hc        1 MOL      0.120063
    118 H54         0.4010    1.1090    6.4490 hc        1 MOL      0.046812
    119 H55        -0.9600    0.6540    5.5340 hc        1 MOL      0.046812
    120 H56        -0.2930   -0.5140    6.6850 hc        1 MOL      0.046812
    121 N11        -1.2490   -0.1060    1.7160 n         1 MOL     -0.497773
    122 C40        -1.8220   -1.0380    0.6960 c3        1 MOL      0.148066
    123 C41        -3.3200   -1.0790    0.8050 c         1 MOL      0.603729
    124 O16        -3.9030   -1.5390    1.7730 o         1 MOL     -0.512886
    125 C42        -1.3420   -2.5040    0.9350 c3        1 MOL     -0.289058
    126 O17         0.0170   -2.7000    0.6160 oh        1 MOL     -0.034398
    127 H57        -1.9220    0.2430    2.3890 hn        1 MOL      0.304103
    128 H58        -1.5360   -0.7190   -0.3010 h1        1 MOL      0.006875
    129 H59        -1.7930   -3.1230    0.1550 h1        1 MOL      0.139880
    130 H60        -1.4720   -2.6990    1.9960 h1        1 MOL      0.139880
    131 H61         0.3050   -2.1110   -0.0900 ho        1 MOL      0.149535
    132 N12        -3.9430   -0.6120   -0.3230 n         1 MOL     -0.742484
    133 C43        -5.4010   -0.4520   -0.5180 c3        1 MOL      0.558612
    134 C44        -5.8720   -0.5270   -1.9700 c         1 MOL      0.336596
    135 O18        -4.9790   -0.3660   -2.8280 o         1 MOL     -0.532494
    136 C45        -5.7020    0.8810    0.2290 c3        1 MOL     -0.412028
    137 H62        -3.3250   -0.2940   -1.0530 hn        1 MOL      0.313224
    138 H63        -5.8940   -1.2470    0.0550 h1        1 MOL     -0.011437
    139 H64        -5.3280    1.7380   -0.3470 hc        1 MOL      0.114244
    140 H65        -6.7650    0.9980    0.4190 hc        1 MOL      0.114244
    141 H66        -5.2520    0.9020    1.2260 hc        1 MOL      0.114244
    142 N13        -7.1710   -0.5810   -2.3130 n         1 MOL     -0.514263
    143 C46        -8.3930   -0.5820   -1.4810 c3        1 MOL      0.312444
    144 C47        -9.4960    0.2120   -2.2520 c         1 MOL      0.488279
    145 O19        -9.1340    0.6210   -3.3380 o         1 MOL     -0.544206
    146 C48        -8.6640   -2.0990   -1.1560 c3        1 MOL     -0.384500
    147 H67        -7.2850   -0.6900   -3.3070 hn        1 MOL      0.352748
    148 H68        -8.2280   -0.1070   -0.5150 h1        1 MOL     -0.003369
    149 H69        -8.9690   -2.6060   -2.0800 hc        1 MOL      0.114205
    150 H70        -7.8400   -2.6710   -0.7190 hc        1 MOL      0.114205
    151 H71        -9.3580   -2.2340   -0.3260 hc        1 MOL      0.114205
    152 N14       -10.6280    0.5810   -1.6650 n         1 MOL     -0.435364
    153 C49       -11.0290    0.2820   -0.2990 c3        1 MOL     -0.315107
    154 C50       -10.3380    1.0970    0.7260 c         1 MOL      0.518651
    155 O20       -10.0590    0.6180    1.8350 o         1 MOL     -0.516707
    156 C51       -12.6080    0.4520   -0.2230 c3        1 MOL      0.417062
    157 C52       -13.3390   -0.4410   -1.2220 c3        1 MOL     -0.250965
    158 C53       -14.8420   -0.4090   -0.9420 c         1 MOL      0.691284
    159 O21       -15.5030    0.6060   -1.2520 o         1 MOL     -0.650494
    160 O22       -15.3390   -1.3510   -0.2970 o         1 MOL     -0.650494
    161 H72       -11.2580    1.0990   -2.2620 hn        1 MOL      0.331365
    162 H73       -10.7710   -0.7570   -0.0650 h1        1 MOL      0.126885
    163 H74       -12.8780    1.5060   -0.3200 hc        1 MOL     -0.049911
    164 H75       -12.9530    0.3040    0.8090 hc        1 MOL     -0.049911
    165 H76       -12.9660   -1.4610   -1.3040 hc        1 MOL      0.011609
    166 H77       -13.1710    0.1130   -2.1460 hc        1 MOL      0.011609
    167 N15       -10.0010    2.3390    0.4020 n         1 MOL     -0.289514
    168 C54        -9.1600    3.1670    1.2730 c3        1 MOL     -0.355074
    169 H78        -8.6940    3.9570    0.6830 h1        1 MOL      0.141789
    170 H79        -9.7730    3.6120    2.0560 h1        1 MOL      0.141789
    171 H80        -8.3850    2.5490    1.7260 h1        1 MOL      0.141789
    172 H81       -10.2990    2.7630   -0.4610 hn        1 MOL      0.277822
    173 Ca1         2.7060    0.5940   -0.8740 Ca        1 MOL      1.745784
    174 O23         0.6440    2.3290   -1.3980 oh        1 MOL     -0.943437
    175 H82         0.5620    3.0810   -1.9950 ho        1 MOL      0.454800
    176 H83        -0.2680    2.0830   -1.2090 ho        1 MOL      0.454800
    177 O24         0.5260   -1.0480   -1.7830 oh        1 MOL     -0.943437
    178 H84        -0.3840   -1.1160   -2.0580 ho        1 MOL      0.454800
    179 H85         1.0240   -1.4670   -2.4980 ho        1 MOL      0.454800
@<TRIPOS>BOND
     1    1    2 1   
     2    1    4 1   
     3    1    5 1   
     4    1    6 1   
     5    2    3 2   
     6    2    7 1   
     7    7    8 1   
     8    7   15 1   
     9    8    9 1   
    10    8   11 1   
    11    8   16 1   
    12    9   10 2   
    13    9   19 1   
    14   11   12 1   
    15   11   17 1   
    16   11   18 1   
    17   12   13 1   
    18   12   14 1   
    19   19   20 1   
    20   19   28 1   
    21   20   21 1   
    22   20   23 1   
    23   20   29 1   
    24   21   22 2   
    25   21   41 1   
    26   23   24 1   
    27   23   30 1   
    28   23   31 1   
    29   24   25 1   
    30   24   32 1   
    31   24   33 1   
    32   25   26 1   
    33   25   34 1   
    34   25   35 1   
    35   26   27 1   
    36   26   36 1   
    37   26   37 1   
    38   27   38 1   
    39   27   39 1   
    40   27   40 1   
    41   41   42 1   
    42   41   49 1   
    43   42   43 1   
    44   42   45 1   
    45   42   50 1   
    46   43   44 2   
    47   43   53 1   
    48   45   46 1   
    49   45   51 1   
    50   45   52 1   
    51   46   47 1   
    52   46   48 1   
    53   53   54 1   
    54   53   57 1   
    55   54   55 1   
    56   54   58 1   
    57   54   59 1   
    58   55   56 2   
    59   55   60 1   
    60   60   61 1   
    61   60   68 1   
    62   61   62 1   
    63   61   64 1   
    64   61   69 1   
    65   62   63 2   
    66   62   74 1   
    67   64   65 1   
    68   64   70 1   
    69   64   71 1   
    70   65   66 1   
    71   65   67 2   
    72   66   72 1   
    73   66   73 1   
    74   74   75 1   
    75   74   78 1   
    76   75   76 1   
    77   75   79 1   
    78   75   80 1   
    79   76   77 2   
    80   76   81 1   
    81   81   82 1   
    82   81   93 1   
    83   82   83 1   
    84   82   85 1   
    85   82   94 1   
    86   83   84 2   
    87   83  102 1   
    88   85   86 1   
    89   85   95 1   
    90   85   96 1   
    91   86   87 ar  
    92   86   88 ar  
    93   87   89 ar  
    94   87   97 1   
    95   88   90 ar  
    96   88   98 1   
    97   89   91 ar  
    98   89   99 1   
    99   90   91 ar  
   100   90  100 1   
   101   91   92 1   
   102   92  101 1   
   103  102  103 1   
   104  102  110 1   
   105  103  104 1   
   106  103  106 1   
   107  103  111 1   
   108  104  105 2   
   109  104  121 1   
   110  106  107 1   
   111  106  108 1   
   112  106  112 1   
   113  107  109 1   
   114  107  113 1   
   115  107  114 1   
   116  108  115 1   
   117  108  116 1   
   118  108  117 1   
   119  109  118 1   
   120  109  119 1   
   121  109  120 1   
   122  121  122 1   
   123  121  127 1   
   124  122  123 1   
   125  122  125 1   
   126  122  128 1   
   127  123  124 2   
   128  123  132 1   
   129  125  126 1   
   130  125  129 1   
   131  125  130 1   
   132  126  131 1   
   133  132  133 1   
   134  132  137 1   
   135  133  134 1   
   136  133  136 1   
   137  133  138 1   
   138  134  135 2   
   139  134  142 1   
   140  136  139 1   
   141  136  140 1   
   142  136  141 1   
   143  142  143 1   
   144  142  147 1   
   145  143  144 1   
   146  143  146 1   
   147  143  148 1   
   148  144  145 2   
   149  144  152 1   
   150  146  149 1   
   151  146  150 1   
   152  146  151 1   
   153  152  153 1   
   154  152  161 1   
   155  153  154 1   
   156  153  156 1   
   157  153  162 1   
   158  154  155 2   
   159  154  167 1   
   160  156  157 1   
   161  156  163 1   
   162  156  164 1   
   163  157  158 1   
   164  157  165 1   
   165  157  166 1   
   166  158  159 1   
   167  158  160 1   
   168  167  168 1   
   169  167  172 1   
   170  168  169 1   
   171  168  170 1   
   172  168  171 1   
   173  174  175 1   
   174  174  176 1   
   175  177  178 1   
   176  177  179 1   
@<TRIPOS>SUBSTRUCTURE
     1 MOL         1 TEMP              0 ****  ****    0 ROOT
