@<TRIPOS>MOLECULE
MOL
  192   187     1     0     0
SMALL
resp


@<TRIPOS>ATOM
      1 C1         11.8360    5.9520   -2.5850 c3        1 MOL     -0.410556
      2 C2         11.8020    4.7360   -1.6640 c         1 MOL      0.736698
      3 O1         12.8700    4.1790   -1.5430 o         1 MOL     -0.588474
      4 H1         11.6350    6.8530   -2.0040 hc        1 MOL      0.107233
      5 H2         12.8200    6.0310   -3.0480 hc        1 MOL      0.107233
      6 H3         11.0770    5.8430   -3.3590 hc        1 MOL      0.107233
      7 N1         10.7090    4.2640   -1.1120 n         1 MOL     -0.424701
      8 C3         10.6290    3.2100   -0.0240 c3        1 MOL     -0.259743
      9 C4          9.3740    2.3010   -0.1170 c         1 MOL      0.691092
     10 O2          8.2720    2.8470   -0.3730 o         1 MOL     -0.677293
     11 C5         10.7020    3.7540    1.4490 c3        1 MOL      0.151032
     12 C6          9.9390    5.0800    1.7210 c         1 MOL      0.596941
     13 O3         10.3940    5.9140    2.5690 o         1 MOL     -0.678798
     14 O4          8.8580    5.2740    1.1440 o         1 MOL     -0.678798
     15 H4          9.8990    4.8660   -1.1800 hn        1 MOL      0.167162
     16 H5         11.5570    2.6660   -0.1580 h1        1 MOL      0.111341
     17 H6         11.7470    3.7630    1.7620 hc        1 MOL      0.013233
     18 H7         10.3200    2.9540    2.0910 hc        1 MOL      0.013233
     19 N2          9.5160    0.9830    0.0870 n         1 MOL     -0.453258
     20 C7          8.4590    0.0850   -0.4090 c3        1 MOL      0.050150
     21 C8          7.3700   -0.1200    0.6530 c         1 MOL      0.614255
     22 O5          7.6720   -0.6600    1.7390 o         1 MOL     -0.525583
     23 C9          9.2430   -1.1580   -0.8520 c3        1 MOL     -0.222657
     24 C10         8.3350   -2.3240   -1.3330 c3        1 MOL      0.046941
     25 C11         9.1880   -3.4570   -1.8590 c3        1 MOL     -0.207882
     26 C12         8.2370   -4.6320   -2.1640 c3        1 MOL      0.153937
     27 N3          8.9490   -5.6910   -2.8830 n4        1 MOL     -0.334297
     28 H8         10.3990    0.6000    0.3730 hn        1 MOL      0.304836
     29 H9          7.9080    0.4680   -1.2640 h1        1 MOL      0.075376
     30 H10         9.9190   -1.5060   -0.0830 hc        1 MOL      0.087868
     31 H11         9.8470   -0.7480   -1.6640 hc        1 MOL      0.087868
     32 H12         7.6110   -1.9920   -2.0810 hc        1 MOL      0.036873
     33 H13         7.7180   -2.6750   -0.5000 hc        1 MOL      0.036873
     34 H14         9.8350   -3.8150   -1.0570 hc        1 MOL      0.085159
     35 H15         9.7730   -3.0750   -2.6940 hc        1 MOL      0.085159
     36 H16         7.4740   -4.2650   -2.8490 hx        1 MOL      0.060643
     37 H17         7.7600   -5.0350   -1.2690 hx        1 MOL      0.060643
     38 H18         8.3150   -6.3720   -3.2670 hn        1 MOL      0.298148
     39 H19         9.5820   -5.3350   -3.5940 hn        1 MOL      0.298148
     40 H20         9.4480   -6.2190   -2.1760 hn        1 MOL      0.298148
     41 N4          6.0820    0.2060    0.3290 n         1 MOL     -0.450012
     42 C13         4.9270    0.1460    1.2080 c3        1 MOL     -0.052344
     43 C14         3.5450    0.2520    0.4480 c         1 MOL      0.576179
     44 O6          3.4110    1.0050   -0.4950 o         1 MOL     -0.571365
     45 C15         4.8840    1.1520    2.3290 c3        1 MOL     -0.270620
     46 C16         5.5080    2.5540    2.1810 c         1 MOL      0.686413
     47 O7          4.7800    3.4140    1.6230 o         1 MOL     -0.676105
     48 O8          6.7160    2.8390    2.4940 o         1 MOL     -0.676105
     49 H21         5.9600    0.5090   -0.6280 hn        1 MOL      0.210026
     50 H22         5.0290   -0.8750    1.5760 h1        1 MOL      0.128710
     51 H23         5.4630    0.8320    3.2010 hc        1 MOL      0.092481
     52 H24         3.8360    1.2180    2.6250 hc        1 MOL      0.092481
     53 N5          2.4670   -0.3140    1.0020 n         1 MOL     -0.323996
     54 C17         2.4470   -1.1980    2.1710 c3        1 MOL     -0.051975
     55 C18         2.9820   -2.6100    1.8980 c         1 MOL      0.577352
     56 O9          3.2980   -2.9000    0.7920 o         1 MOL     -0.591058
     57 H25         1.5470   -0.1660    0.6170 hn        1 MOL      0.280747
     58 H26         1.4320   -1.4270    2.4790 h1        1 MOL      0.058201
     59 H27         3.0060   -0.7100    2.9690 h1        1 MOL      0.058201
     60 N6          2.9270   -3.4660    2.8730 n         1 MOL     -0.379286
     61 C19         3.3910   -4.7870    2.8560 c3        1 MOL      0.073478
     62 C20         2.5420   -5.6850    2.0230 c         1 MOL      0.438839
     63 O10         3.0710   -6.4030    1.1160 o         1 MOL     -0.586021
     64 C21         3.6040   -5.3500    4.3300 c3        1 MOL     -0.415903
     65 C22         2.4000   -5.3670    5.2670 c         1 MOL      0.743370
     66 O11         2.4850   -6.0010    6.3550 o         1 MOL     -0.664150
     67 O12         1.3130   -4.8660    4.9640 o         1 MOL     -0.664150
     68 H28         2.4490   -3.1680    3.7030 hn        1 MOL      0.224019
     69 H29         4.3690   -4.6840    2.4030 h1        1 MOL      0.072873
     70 H30         4.4260   -4.8160    4.8020 hc        1 MOL      0.121081
     71 H31         3.9140   -6.3940    4.1910 hc        1 MOL      0.121081
     72 N7          1.2390   -5.8270    2.2620 n         1 MOL     -0.145157
     73 C23         0.4190   -6.5330    1.3370 c3        1 MOL      0.132994
     74 C24        -0.0630   -5.8450    0.0380 c         1 MOL      0.427329
     75 O13        -0.6640   -6.5510   -0.7700 o         1 MOL     -0.522040
     76 H32         0.8140   -5.5050    3.1160 hn        1 MOL      0.196859
     77 H33        -0.4170   -6.8400    1.9580 h1        1 MOL      0.017051
     78 H34         0.8580   -7.5070    1.1220 h1        1 MOL      0.017051
     79 N8          0.3310   -4.5700   -0.1950 n         1 MOL     -0.364270
     80 C25         0.5030   -4.0280   -1.5460 c3        1 MOL      0.185356
     81 C26         0.1840   -2.5080   -1.5540 c         1 MOL      0.176213
     82 O14         0.3670   -1.7850   -0.5790 o         1 MOL     -0.417677
     83 C27         1.9080   -4.1800   -2.2230 c3        1 MOL      0.275137
     84 C28         2.2880   -5.6690   -2.3310 c3        1 MOL     -0.460682
     85 O15         1.9060   -3.6830   -3.5040 oh        1 MOL     -0.601371
     86 H35         0.7630   -4.0720    0.5680 hn        1 MOL      0.197268
     87 H36        -0.2250   -4.4400   -2.2520 h1        1 MOL      0.039735
     88 H37         2.5690   -3.6080   -1.5670 h1        1 MOL      0.021046
     89 H38         2.8230   -3.7860   -3.7950 ho        1 MOL      0.396895
     90 H39         3.3460   -5.8010   -2.5260 hc        1 MOL      0.119150
     91 H40         1.9490   -6.2200   -1.4470 hc        1 MOL      0.119150
     92 H41         1.7970   -6.1240   -3.1870 hc        1 MOL      0.119150
     93 N9         -0.3430   -1.9600   -2.6170 n         1 MOL     -0.042255
     94 C29        -0.6620   -0.5390   -2.7710 c3        1 MOL     -0.032858
     95 C30        -2.0340   -0.3510   -2.1530 c         1 MOL      0.613924
     96 O16        -2.2710    0.7750   -1.8090 o         1 MOL     -0.551056
     97 C31        -0.6310   -0.1040   -4.2320 c3        1 MOL     -0.036742
     98 C32         0.7860   -0.3760   -4.8830 c3        1 MOL      0.066616
     99 C33        -0.9350    1.3680   -4.3360 c3        1 MOL     -0.158905
    100 C34         1.9780    0.1810   -4.1310 c3        1 MOL     -0.050832
    101 H42        -0.6740   -2.5510   -3.3670 hn        1 MOL      0.193936
    102 H43        -0.0090    0.0730   -2.1580 h1        1 MOL      0.089025
    103 H44        -1.4580   -0.5700   -4.7730 hc        1 MOL      0.025872
    104 H45         0.8170   -0.0040   -5.9070 hc        1 MOL     -0.025000
    105 H46         0.9000   -1.4620   -4.9360 hc        1 MOL     -0.025000
    106 H47        -0.8750    1.6790   -5.3810 hc        1 MOL      0.054756
    107 H48        -1.9330    1.6090   -3.9860 hc        1 MOL      0.054756
    108 H49        -0.2310    2.0140   -3.8060 hc        1 MOL      0.054756
    109 H50         1.6530    0.8940   -3.3900 hc        1 MOL      0.003840
    110 H51         2.3880   -0.6660   -3.5840 hc        1 MOL      0.003840
    111 H52         2.7590    0.5910   -4.7730 hc        1 MOL      0.003840
    112 N10        -2.9280   -1.3300   -1.9980 n         1 MOL     -0.385630
    113 C35        -4.0890   -1.2480   -1.0160 c3        1 MOL     -0.278256
    114 C36        -5.2930   -1.9890   -1.6160 c         1 MOL      0.706699
    115 O17        -5.1560   -2.7130   -2.6280 o         1 MOL     -0.514839
    116 C37        -3.7210   -1.9830    0.2760 c3        1 MOL      0.389079
    117 C38        -3.5250   -3.5230    0.2590 c3        1 MOL     -0.219159
    118 O18        -2.5130   -1.4820    0.7860 oh        1 MOL     -0.588305
    119 H53        -2.8630   -2.1870   -2.5250 hn        1 MOL      0.216674
    120 H54        -4.3570   -0.2290   -0.7360 h1        1 MOL      0.166700
    121 H55        -4.4600   -1.8220    1.0540 h1        1 MOL      0.026550
    122 H56        -2.0260   -1.0050    0.1040 ho        1 MOL      0.345359
    123 H57        -4.5030   -3.9820    0.1500 hc        1 MOL      0.053943
    124 H58        -3.0700   -3.8380   -0.6760 hc        1 MOL      0.053943
    125 H59        -3.0000   -3.8590    1.1450 hc        1 MOL      0.053943
    126 N11        -6.5630   -1.7790   -1.0920 n         1 MOL     -0.595546
    127 C39        -7.8170   -2.3940   -1.5350 c3        1 MOL      0.243246
    128 C40        -8.8640   -1.2970   -1.7860 c         1 MOL      0.374454
    129 O19        -9.1980   -1.0720   -2.9860 o         1 MOL     -0.497580
    130 C41        -8.3670   -3.4000   -0.4750 c3        1 MOL      0.109906
    131 C42        -9.8030   -3.8280   -0.7780 c3        1 MOL     -0.421348
    132 O20        -8.2440   -2.9590    0.8770 oh        1 MOL     -0.607783
    133 H60        -6.6280   -1.0220   -0.4320 hn        1 MOL      0.263466
    134 H61        -7.5630   -2.9520   -2.4320 h1        1 MOL      0.059502
    135 H62        -7.6560   -4.2190   -0.5240 h1        1 MOL      0.069144
    136 H63        -8.1620   -3.7880    1.3580 ho        1 MOL      0.415481
    137 H64       -10.2910   -4.2880    0.0870 hc        1 MOL      0.121441
    138 H65       -10.4880   -3.0280   -1.0630 hc        1 MOL      0.121441
    139 H66        -9.7590   -4.5760   -1.5690 hc        1 MOL      0.121441
    140 N12        -9.2850   -0.5010   -0.6990 n         1 MOL     -0.092718
    141 C43       -10.1890    0.5610   -0.6730 c3        1 MOL     -0.346177
    142 C44        -9.7170    1.7220    0.1920 c         1 MOL      0.562592
    143 O21        -9.0150    1.5680    1.1890 o         1 MOL     -0.477743
    144 C45       -11.6330    0.0380   -0.2070 c3        1 MOL     -0.230695
    145 C46       -11.6180   -0.4010    1.2710 c3        1 MOL     -0.127837
    146 C47       -12.9030   -1.1700    1.6620 c3        1 MOL      0.037224
    147 C48       -14.1890   -0.3240    1.4990 c3        1 MOL     -0.015042
    148 N13       -15.3580   -1.1790    1.7970 n4        1 MOL     -0.192895
    149 H67        -8.9130   -0.7300    0.2080 hn        1 MOL      0.208586
    150 H68       -10.2640    0.9290   -1.6980 h1        1 MOL      0.176083
    151 H69       -11.7860   -0.8740   -0.7910 hc        1 MOL      0.114803
    152 H70       -12.4750    0.6210   -0.5560 hc        1 MOL      0.114803
    153 H71       -11.4630    0.3700    2.0220 hc        1 MOL      0.109562
    154 H72       -10.8140   -1.1290    1.3540 hc        1 MOL      0.109562
    155 H73       -12.8560   -1.5120    2.7060 hc        1 MOL      0.003871
    156 H74       -12.9880   -1.9870    0.9470 hc        1 MOL      0.003871
    157 H75       -14.1670   -0.0600    0.4430 hx        1 MOL      0.089993
    158 H76       -14.1180    0.5280    2.1750 hx        1 MOL      0.089993
    159 H77       -15.2190   -1.5500    2.7290 hn        1 MOL      0.239013
    160 H78       -16.2480   -0.7310    1.9400 hn        1 MOL      0.239013
    161 H79       -15.4290   -1.9590    1.1570 hn        1 MOL      0.239013
    162 N14       -10.1190    2.9620   -0.1620 n         1 MOL     -0.428098
    163 C49       -10.1360    4.1650    0.6880 c3        1 MOL      0.232055
    164 C50        -8.7590    4.4840    1.2500 c         1 MOL      0.329994
    165 O22        -8.6030    4.4170    2.4650 o         1 MOL     -0.513191
    166 C51       -10.8080    5.3700   -0.0020 c3        1 MOL     -0.097255
    167 C52       -11.3890    6.3130    1.0390 c3        1 MOL     -0.073639
    168 C53       -12.1700    7.5620    0.4850 c         1 MOL      0.678660
    169 O23       -12.6880    8.3250    1.3110 o         1 MOL     -0.651466
    170 O24       -12.0800    7.8480   -0.7390 o         1 MOL     -0.651466
    171 H80       -10.4010    3.0870   -1.1320 hn        1 MOL      0.247906
    172 H81       -10.7400    3.9000    1.5500 h1        1 MOL      0.041545
    173 H82       -11.6430    5.0020   -0.5970 hc        1 MOL      0.015982
    174 H83       -10.1820    5.9850   -0.6450 hc        1 MOL      0.015982
    175 H84       -10.6280    6.5880    1.7810 hc        1 MOL      0.003608
    176 H85       -12.1000    5.7000    1.5830 hc        1 MOL      0.003608
    177 N15        -7.6870    4.6820    0.4530 n         1 MOL     -0.285031
    178 C54        -7.5160    4.6000   -1.0240 c3        1 MOL     -0.015270
    179 H86        -7.5110    3.5530   -1.3310 h1        1 MOL      0.046531
    180 H87        -8.3390    5.1180   -1.5160 h1        1 MOL      0.046531
    181 H88        -6.5720    5.0650   -1.3080 h1        1 MOL      0.046531
    182 H89        -6.8220    4.8440    0.9530 hn        1 MOL      0.270431
    183 Ca1         6.5050    4.8800    0.3180 Ca        1 MOL      1.799549
    184 O25         5.2360    3.1730   -1.2300 oh        1 MOL     -0.930954
    185 H90         5.5250    3.0810   -2.1340 ho        1 MOL      0.449160
    186 H91         4.6250    2.4450   -1.0970 ho        1 MOL      0.449160
    187 O26         4.0060    6.0200    0.0580 oh        1 MOL     -0.930954
    188 H92         3.3650    5.3070    0.0070 ho        1 MOL      0.449160
    189 H93         3.4860    6.8180    0.0370 ho        1 MOL      0.449160
    190 O27         6.6540    6.2320    2.5720 oh        1 MOL     -0.930954
    191 H94         7.4540    6.7670    2.6220 ho        1 MOL      0.449160
    192 H95         6.2400    6.3400    3.4290 ho        1 MOL      0.449160
@<TRIPOS>BOND
     1    1    2 1   
     2    1    4 1   
     3    1    5 1   
     4    1    6 1   
     5    2    3 2   
     6    2    7 1   
     7    7    8 1   
     8    7   15 1   
     9    8    9 1   
    10    8   11 1   
    11    8   16 1   
    12    9   10 2   
    13    9   19 1   
    14   11   12 1   
    15   11   17 1   
    16   11   18 1   
    17   12   13 1   
    18   12   14 1   
    19   19   20 1   
    20   19   28 1   
    21   20   21 1   
    22   20   23 1   
    23   20   29 1   
    24   21   22 2   
    25   21   41 1   
    26   23   24 1   
    27   23   30 1   
    28   23   31 1   
    29   24   25 1   
    30   24   32 1   
    31   24   33 1   
    32   25   26 1   
    33   25   34 1   
    34   25   35 1   
    35   26   27 1   
    36   26   36 1   
    37   26   37 1   
    38   27   38 1   
    39   27   39 1   
    40   27   40 1   
    41   41   42 1   
    42   41   49 1   
    43   42   43 1   
    44   42   45 1   
    45   42   50 1   
    46   43   44 2   
    47   43   53 1   
    48   45   46 1   
    49   45   51 1   
    50   45   52 1   
    51   46   47 1   
    52   46   48 1   
    53   53   54 1   
    54   53   57 1   
    55   54   55 1   
    56   54   58 1   
    57   54   59 1   
    58   55   56 2   
    59   55   60 1   
    60   60   61 1   
    61   60   68 1   
    62   61   62 1   
    63   61   64 1   
    64   61   69 1   
    65   62   63 2   
    66   62   72 1   
    67   64   65 1   
    68   64   70 1   
    69   64   71 1   
    70   65   66 1   
    71   65   67 1   
    72   72   73 1   
    73   72   76 1   
    74   73   74 1   
    75   73   77 1   
    76   73   78 1   
    77   74   75 2   
    78   74   79 1   
    79   79   80 1   
    80   79   86 1   
    81   80   81 1   
    82   80   83 1   
    83   80   87 1   
    84   81   82 2   
    85   81   93 1   
    86   83   84 1   
    87   83   85 1   
    88   83   88 1   
    89   84   90 1   
    90   84   91 1   
    91   84   92 1   
    92   85   89 1   
    93   93   94 1   
    94   93  101 1   
    95   94   95 1   
    96   94   97 1   
    97   94  102 1   
    98   95   96 2   
    99   95  112 1   
   100   97   98 1   
   101   97   99 1   
   102   97  103 1   
   103   98  100 1   
   104   98  104 1   
   105   98  105 1   
   106   99  106 1   
   107   99  107 1   
   108   99  108 1   
   109  100  109 1   
   110  100  110 1   
   111  100  111 1   
   112  112  113 1   
   113  112  119 1   
   114  113  114 1   
   115  113  116 1   
   116  113  120 1   
   117  114  115 2   
   118  114  126 1   
   119  116  117 1   
   120  116  118 1   
   121  116  121 1   
   122  117  123 1   
   123  117  124 1   
   124  117  125 1   
   125  118  122 1   
   126  126  127 1   
   127  126  133 1   
   128  127  128 1   
   129  127  130 1   
   130  127  134 1   
   131  128  129 2   
   132  128  140 1   
   133  130  131 1   
   134  130  132 1   
   135  130  135 1   
   136  131  137 1   
   137  131  138 1   
   138  131  139 1   
   139  132  136 1   
   140  140  141 1   
   141  140  149 1   
   142  141  142 1   
   143  141  144 1   
   144  141  150 1   
   145  142  143 2   
   146  142  162 1   
   147  144  145 1   
   148  144  151 1   
   149  144  152 1   
   150  145  146 1   
   151  145  153 1   
   152  145  154 1   
   153  146  147 1   
   154  146  155 1   
   155  146  156 1   
   156  147  148 1   
   157  147  157 1   
   158  147  158 1   
   159  148  159 1   
   160  148  160 1   
   161  148  161 1   
   162  162  163 1   
   163  162  171 1   
   164  163  164 1   
   165  163  166 1   
   166  163  172 1   
   167  164  165 2   
   168  164  177 1   
   169  166  167 1   
   170  166  173 1   
   171  166  174 1   
   172  167  168 1   
   173  167  175 1   
   174  167  176 1   
   175  168  169 1   
   176  168  170 1   
   177  177  178 1   
   178  177  182 1   
   179  178  179 1   
   180  178  180 1   
   181  178  181 1   
   182  184  185 1   
   183  184  186 1   
   184  187  188 1   
   185  187  189 1   
   186  190  191 1   
   187  190  192 1   
@<TRIPOS>SUBSTRUCTURE
     1 MOL         1 TEMP              0 ****  ****    0 ROOT
