@<TRIPOS>MOLECULE
MOL
  192   187     1     0     0
SMALL
resp


@<TRIPOS>ATOM
      1 C1          1.0320    5.8110    2.8530 c3        1 MOL     -0.204437
      2 C2          0.1280    5.3170    1.7390 c         1 MOL      0.599916
      3 O1         -0.7380    4.5070    2.0450 o         1 MOL     -0.549983
      4 H1          1.0260    6.9010    2.8680 hc        1 MOL      0.018902
      5 H2          0.6710    5.4330    3.8090 hc        1 MOL      0.018902
      6 H3          2.0480    5.4570    2.6810 hc        1 MOL      0.018902
      7 N1          0.3540    5.7460    0.4810 n         1 MOL     -0.455897
      8 C3         -0.3490    5.3090   -0.7640 c3        1 MOL     -0.076865
      9 C4         -1.9060    5.2730   -0.6750 c         1 MOL      0.844901
     10 O2         -2.5970    4.3210   -0.9510 o         1 MOL     -0.564944
     11 C5          0.2570    3.9360   -1.2100 c3        1 MOL     -0.558923
     12 C6          1.7500    3.8620   -1.1510 c         1 MOL      0.767457
     13 O3          2.3230    3.2430   -0.2480 o         1 MOL     -0.629465
     14 O4          2.4290    4.3300   -2.1040 o         1 MOL     -0.629465
     15 H4          1.1530    6.3620    0.3760 hn        1 MOL      0.254487
     16 H5         -0.0560    5.9950   -1.5560 h1        1 MOL      0.107762
     17 H6         -0.1630    3.6980   -2.1860 hc        1 MOL      0.164871
     18 H7         -0.2200    3.2360   -0.5260 hc        1 MOL      0.164871
     19 N2         -2.4690    6.4580   -0.3940 n         1 MOL     -0.779194
     20 C7         -3.9510    6.6720   -0.2310 c3        1 MOL      0.246447
     21 C8         -4.5330    6.7670   -1.6620 c         1 MOL      0.632577
     22 O5         -4.0850    7.7130   -2.2860 o         1 MOL     -0.619130
     23 C9         -4.3460    7.8860    0.6810 c3        1 MOL     -0.002526
     24 C10        -3.5470    7.8280    1.9950 c3        1 MOL      0.072268
     25 C11        -5.8230    7.8080    1.0920 c3        1 MOL     -0.229392
     26 C12        -3.7220    8.8110    3.1860 c3        1 MOL     -0.206696
     27 H8         -1.8440    7.2350   -0.2400 hn        1 MOL      0.322917
     28 H9         -4.2850    5.7580    0.2620 h1        1 MOL      0.092536
     29 H10        -4.1650    8.7920    0.1000 hc        1 MOL      0.007163
     30 H11        -2.5040    7.9620    1.7330 hc        1 MOL      0.022734
     31 H12        -3.7080    6.7940    2.3140 hc        1 MOL      0.022734
     32 H13        -6.1990    8.7360    1.5430 hc        1 MOL      0.058156
     33 H14        -6.4740    7.6880    0.2240 hc        1 MOL      0.058156
     34 H15        -6.1230    7.0100    1.7640 hc        1 MOL      0.058156
     35 H16        -3.0230    8.5500    3.9810 hc        1 MOL      0.040323
     36 H17        -3.4230    9.7970    2.8480 hc        1 MOL      0.040323
     37 H18        -4.7300    8.7900    3.6020 hc        1 MOL      0.040323
     38 N3         -5.4770    5.9350   -2.0840 n         1 MOL     -0.561956
     39 C13        -5.7270    4.5990   -1.5090 c3        1 MOL      0.133727
     40 C14        -5.6220    3.5550   -2.6850 c         1 MOL      0.615714
     41 O6         -5.6900    4.0480   -3.8420 o         1 MOL     -0.581519
     42 C15        -7.1520    4.6650   -0.8960 c3        1 MOL     -0.293864
     43 C16        -7.6440    3.4890   -0.0890 c         1 MOL      0.710221
     44 O7         -6.9140    2.4540    0.1400 o         1 MOL     -0.686476
     45 O8         -8.7890    3.5760    0.3930 o         1 MOL     -0.686476
     46 H19        -5.6960    5.8890   -3.0750 hn        1 MOL      0.304107
     47 H20        -4.9900    4.4000   -0.7280 h1        1 MOL     -0.001707
     48 H21        -7.8740    4.9480   -1.6730 hc        1 MOL      0.068065
     49 H22        -7.0970    5.4880   -0.1830 hc        1 MOL      0.068065
     50 N4         -5.5410    2.2720   -2.4060 n         1 MOL     -0.424130
     51 C17        -5.0690    1.1700   -3.2830 c3        1 MOL     -0.002162
     52 C18        -5.8790   -0.0900   -3.1640 c         1 MOL      0.630235
     53 O9         -7.1270   -0.0680   -3.1380 o         1 MOL     -0.573484
     54 H23        -5.6080    1.9920   -1.4390 hn        1 MOL      0.276095
     55 H24        -4.0340    0.8890   -3.0970 h1        1 MOL      0.054501
     56 H25        -5.1090    1.5050   -4.3200 h1        1 MOL      0.054501
     57 N5         -5.2130   -1.2450   -3.0850 n         1 MOL     -0.543304
     58 C19        -5.7970   -2.6160   -3.1890 c3        1 MOL      0.083382
     59 C20        -6.6630   -3.0300   -1.9920 c         1 MOL      0.416977
     60 O10        -7.4970   -3.9710   -2.0140 o         1 MOL     -0.555129
     61 C21        -4.8170   -3.7420   -3.4660 c3        1 MOL     -0.185882
     62 C22        -3.4430   -3.6180   -2.6750 c         1 MOL      0.700197
     63 O11        -2.6100   -2.8500   -3.1150 o         1 MOL     -0.674071
     64 O12        -3.3410   -4.1630   -1.5520 o         1 MOL     -0.674071
     65 H26        -4.2110   -1.2590   -2.9560 hn        1 MOL      0.284565
     66 H27        -6.4660   -2.7560   -4.0440 h1        1 MOL      0.075798
     67 H28        -4.4630   -3.7650   -4.4970 hc        1 MOL      0.030407
     68 H29        -5.3200   -4.6960   -3.2930 hc        1 MOL      0.030407
     69 N6         -6.4880   -2.3290   -0.8450 n         1 MOL     -0.093700
     70 C23        -7.1050   -2.6610    0.4410 c3        1 MOL     -0.481608
     71 C24        -6.4360   -3.8360    1.2080 c         1 MOL      0.636104
     72 O13        -6.7720   -4.1260    2.3500 o         1 MOL     -0.632211
     73 H30        -5.9440   -1.4740   -0.8690 hn        1 MOL      0.245465
     74 H31        -8.1050   -3.0330    0.2430 h1        1 MOL      0.188230
     75 H32        -7.0200   -1.8120    1.1130 h1        1 MOL      0.188230
     76 N7         -5.3610   -4.3810    0.7210 n         1 MOL     -0.221522
     77 C25        -4.5730   -5.4530    1.2190 c3        1 MOL      0.346131
     78 C26        -3.8940   -5.2010    2.5830 c         1 MOL      0.170263
     79 O14        -3.4590   -6.2230    3.1650 o         1 MOL     -0.484162
     80 C27        -5.2670   -6.7580    1.2150 c3        1 MOL      0.080531
     81 C28        -5.7610   -7.0400   -0.1970 c3        1 MOL     -0.230977
     82 C29        -6.2930   -8.5180   -0.1800 c         1 MOL      0.624827
     83 N8         -7.4060   -8.7300   -0.8710 n         1 MOL     -0.772987
     84 O15        -5.6340   -9.4480    0.2750 o         1 MOL     -0.540714
     85 H33        -5.1340   -4.1550   -0.2360 hn        1 MOL      0.021079
     86 H34        -3.7850   -5.4520    0.4680 h1        1 MOL      0.020617
     87 H35        -6.1650   -6.6080    1.8250 hc        1 MOL     -0.020974
     88 H36        -4.6610   -7.5920    1.5740 hc        1 MOL     -0.020974
     89 H37        -4.9790   -6.8460   -0.9300 hc        1 MOL      0.074138
     90 H38        -6.5420   -6.2870   -0.3170 hc        1 MOL      0.074138
     91 H39        -7.6970   -7.9210   -1.4070 hn        1 MOL      0.342235
     92 H40        -7.9020   -9.6050   -0.9350 hn        1 MOL      0.342235
     93 N9         -3.5840   -3.9350    2.9660 n         1 MOL     -0.024519
     94 C30        -2.7940   -3.5160    4.1880 c3        1 MOL     -0.134949
     95 C31        -1.3450   -3.1180    3.9310 c         1 MOL      0.545235
     96 O16        -0.4910   -3.3780    4.8030 o         1 MOL     -0.562498
     97 C32        -3.5610   -2.3590    4.8930 c3        1 MOL      0.197818
     98 C33        -3.9930   -1.2110    4.0170 c3        1 MOL     -0.229238
     99 C34        -4.8020   -2.9580    5.4920 c3        1 MOL     -0.229238
    100 H41        -3.7650   -3.2460    2.2460 hn        1 MOL      0.146106
    101 H42        -2.7840   -4.3430    4.9040 h1        1 MOL      0.110485
    102 H43        -2.9540   -1.9640    5.7080 hc        1 MOL     -0.028935
    103 H44        -3.1720   -0.7310    3.4790 hc        1 MOL      0.054226
    104 H45        -4.7560   -1.5460    3.3060 hc        1 MOL      0.054226
    105 H46        -4.3680   -0.3620    4.5860 hc        1 MOL      0.054226
    106 H47        -5.5670   -3.1400    4.7310 hc        1 MOL      0.054226
    107 H48        -4.6070   -3.8920    6.0160 hc        1 MOL      0.054226
    108 H49        -5.2670   -2.1890    6.1120 hc        1 MOL      0.054226
    109 N10        -1.0210   -2.6960    2.7200 n         1 MOL     -0.420232
    110 C35         0.1960   -1.8650    2.4600 c3        1 MOL      0.248831
    111 C36         0.9680   -2.3690    1.2620 c         1 MOL      0.441160
    112 O17         0.4010   -2.8940    0.2860 o         1 MOL     -0.471016
    113 C37        -0.2650   -0.4580    2.3020 c3        1 MOL     -0.400980
    114 C38         0.8760    0.5070    2.0120 c         1 MOL      0.292146
    115 N11         0.6760    1.3590    1.0180 n         1 MOL     -0.321161
    116 O18         1.9850    0.5140    2.5920 o         1 MOL     -0.415372
    117 H50        -1.7470   -2.6770    2.0230 hn        1 MOL      0.216162
    118 H51         0.8160   -2.0120    3.3500 h1        1 MOL      0.035145
    119 H52        -0.8320   -0.0840    3.1630 hc        1 MOL      0.158700
    120 H53        -0.9630   -0.3630    1.4700 hc        1 MOL      0.158700
    121 H54        -0.1880    1.3130    0.4980 hn        1 MOL      0.263055
    122 H55         1.4710    1.8930    0.6810 hn        1 MOL      0.263055
    123 N12         2.2710   -2.1050    1.1930 n         1 MOL     -0.341543
    124 C39         3.0920   -2.1160   -0.0300 c3        1 MOL      0.000212
    125 C40         4.6310   -2.3120    0.1590 c         1 MOL      0.517244
    126 O19         5.3170   -1.9070    1.0700 o         1 MOL     -0.572032
    127 C41         2.8490   -0.7540   -0.7830 c3        1 MOL     -0.145238
    128 C42         3.4250   -0.5030   -2.1440 ca        1 MOL      0.027599
    129 C43         3.3710   -1.5190   -3.1530 ca        1 MOL     -0.135724
    130 C44         4.1440    0.6510   -2.4470 ca        1 MOL     -0.135724
    131 C45         3.9980   -1.2730   -4.4510 ca        1 MOL     -0.274475
    132 C46         4.7290    0.8790   -3.7000 ca        1 MOL     -0.274475
    133 C47         4.6750   -0.1010   -4.6990 ca        1 MOL      0.396462
    134 O20         5.3080    0.0240   -5.8600 oh        1 MOL     -0.560374
    135 H56         2.7290   -1.6720    1.9840 hn        1 MOL      0.220336
    136 H57         2.6600   -2.9080   -0.6370 h1        1 MOL      0.088214
    137 H58         3.1020    0.1080   -0.1630 hc        1 MOL      0.071645
    138 H59         1.7580   -0.7240   -0.8040 hc        1 MOL      0.071645
    139 H60         2.7050   -2.3600   -3.0710 ha        1 MOL      0.160397
    140 H61         4.0880    1.4550   -1.7390 ha        1 MOL      0.160397
    141 H62         3.8850   -2.1000   -5.1450 ha        1 MOL      0.131780
    142 H63         5.3560    1.7460   -3.8500 ha        1 MOL      0.131780
    143 H64         5.3260   -0.7700   -6.3970 ho        1 MOL      0.392622
    144 N13         5.1030   -3.1020   -0.8530 n         1 MOL     -0.309659
    145 C48         6.5260   -3.4340   -1.1490 c3        1 MOL      0.178600
    146 C49         7.1070   -2.7090   -2.3800 c         1 MOL      0.499475
    147 O21         6.9820   -3.2120   -3.5040 o         1 MOL     -0.568763
    148 C50         6.7250   -5.0020   -1.3590 c3        1 MOL     -0.053672
    149 C51         6.4550   -5.6730   -0.0020 c3        1 MOL     -0.173134
    150 C52         6.5270   -7.2310   -0.2200 c         1 MOL      0.721537
    151 O22         5.8040   -7.8420   -1.0300 o         1 MOL     -0.661501
    152 O23         7.3160   -7.8380    0.5060 o         1 MOL     -0.661501
    153 H65         4.4100   -3.3530   -1.5430 hn        1 MOL      0.216967
    154 H66         7.1670   -3.0760   -0.3430 h1        1 MOL      0.031038
    155 H67         7.7930   -5.1560   -1.5440 hc        1 MOL      0.031068
    156 H68         6.1310   -5.3560   -2.1930 hc        1 MOL      0.031068
    157 H69         5.4730   -5.3840    0.3730 hc        1 MOL      0.023433
    158 H70         7.2410   -5.3680    0.6780 hc        1 MOL      0.023433
    159 N14         7.6480   -1.4600   -2.3230 n         1 MOL     -0.549795
    160 C53         7.7670   -0.5160   -1.1740 c3        1 MOL     -0.041442
    161 C54         8.7800   -0.9340   -0.0980 c         1 MOL      0.742859
    162 O24         9.8400   -1.4530   -0.3740 o         1 MOL     -0.608635
    163 C55         8.1320    0.7940   -1.7740 c3        1 MOL      0.109007
    164 C56         8.4850    1.9410   -0.8150 c3        1 MOL     -0.298124
    165 C57         7.2870    2.5720   -0.1140 c         1 MOL      0.889066
    166 O25         6.6590    2.0080    0.8080 o         1 MOL     -0.801296
    167 O26         6.9970    3.8200   -0.3710 o         1 MOL     -0.801296
    168 H71         8.0680   -1.3360   -3.2300 hn        1 MOL      0.298061
    169 H72         6.7520   -0.4110   -0.7970 h1        1 MOL      0.061908
    170 H73         7.3110    1.2190   -2.3470 hc        1 MOL      0.042498
    171 H74         8.9610    0.6140   -2.4560 hc        1 MOL      0.042498
    172 H75         9.0190    2.6810   -1.3980 hc        1 MOL      0.010060
    173 H76         9.2600    1.6240   -0.1090 hc        1 MOL      0.010060
    174 N15         8.3960   -0.7830    1.1870 n         1 MOL     -0.434743
    175 C58         9.1470   -1.1710    2.4030 c3        1 MOL     -0.214221
    176 H77         9.3560   -0.2830    2.9990 h1        1 MOL      0.090286
    177 H78         8.5520   -1.8700    2.9910 h1        1 MOL      0.090286
    178 H79        10.0850   -1.6450    2.1150 h1        1 MOL      0.090286
    179 H80         7.5390   -0.2820    1.3650 hn        1 MOL      0.406954
    180 Ca1         5.8640    4.1710    2.1530 Ca        1 MOL      1.604361
    181 O27         3.8460    2.6720    1.9360 oh        1 MOL     -0.928252
    182 H81         3.2670    1.9830    2.2570 ho        1 MOL      0.429428
    183 H82         3.3800    3.0490    1.1910 ho        1 MOL      0.429428
    184 O28         7.9470    3.3260    3.2130 oh        1 MOL     -0.928252
    185 H83         7.8070    2.7470    3.9610 ho        1 MOL      0.429428
    186 H84         8.8780    3.2470    3.0210 ho        1 MOL      0.429428
    187 O29         4.3670    5.1540    0.0080 oh        1 MOL     -0.928252
    188 H85         3.5980    4.6840   -0.3120 ho        1 MOL      0.429428
    189 H86         4.2530    6.0400   -0.3160 ho        1 MOL      0.429428
    190 O30         5.3300    3.4730    4.5730 oh        1 MOL     -0.928252
    191 H87         4.8430    2.6830    4.7830 ho        1 MOL      0.429428
    192 H88         5.5210    3.8680    5.4300 ho        1 MOL      0.429428
@<TRIPOS>BOND
     1    1    2 1   
     2    1    4 1   
     3    1    5 1   
     4    1    6 1   
     5    2    3 2   
     6    2    7 1   
     7    7    8 1   
     8    7   15 1   
     9    8    9 1   
    10    8   11 1   
    11    8   16 1   
    12    9   10 2   
    13    9   19 1   
    14   11   12 1   
    15   11   17 1   
    16   11   18 1   
    17   12   13 1   
    18   12   14 1   
    19   19   20 1   
    20   19   27 1   
    21   20   21 1   
    22   20   23 1   
    23   20   28 1   
    24   21   22 2   
    25   21   38 1   
    26   23   24 1   
    27   23   25 1   
    28   23   29 1   
    29   24   26 1   
    30   24   30 1   
    31   24   31 1   
    32   25   32 1   
    33   25   33 1   
    34   25   34 1   
    35   26   35 1   
    36   26   36 1   
    37   26   37 1   
    38   38   39 1   
    39   38   46 1   
    40   39   40 1   
    41   39   42 1   
    42   39   47 1   
    43   40   41 2   
    44   40   50 1   
    45   42   43 1   
    46   42   48 1   
    47   42   49 1   
    48   43   44 1   
    49   43   45 1   
    50   50   51 1   
    51   50   54 1   
    52   51   52 1   
    53   51   55 1   
    54   51   56 1   
    55   52   53 2   
    56   52   57 1   
    57   57   58 1   
    58   57   65 1   
    59   58   59 1   
    60   58   61 1   
    61   58   66 1   
    62   59   60 2   
    63   59   69 1   
    64   61   62 1   
    65   61   67 1   
    66   61   68 1   
    67   62   63 1   
    68   62   64 1   
    69   69   70 1   
    70   69   73 1   
    71   70   71 1   
    72   70   74 1   
    73   70   75 1   
    74   71   72 2   
    75   71   76 1   
    76   76   77 1   
    77   76   85 1   
    78   77   78 1   
    79   77   80 1   
    80   77   86 1   
    81   78   79 2   
    82   78   93 1   
    83   80   81 1   
    84   80   87 1   
    85   80   88 1   
    86   81   82 1   
    87   81   89 1   
    88   81   90 1   
    89   82   83 1   
    90   82   84 2   
    91   83   91 1   
    92   83   92 1   
    93   93   94 1   
    94   93  100 1   
    95   94   95 1   
    96   94   97 1   
    97   94  101 1   
    98   95   96 2   
    99   95  109 1   
   100   97   98 1   
   101   97   99 1   
   102   97  102 1   
   103   98  103 1   
   104   98  104 1   
   105   98  105 1   
   106   99  106 1   
   107   99  107 1   
   108   99  108 1   
   109  109  110 1   
   110  109  117 1   
   111  110  111 1   
   112  110  113 1   
   113  110  118 1   
   114  111  112 2   
   115  111  123 1   
   116  113  114 1   
   117  113  119 1   
   118  113  120 1   
   119  114  115 1   
   120  114  116 2   
   121  115  121 1   
   122  115  122 1   
   123  123  124 1   
   124  123  135 1   
   125  124  125 1   
   126  124  127 1   
   127  124  136 1   
   128  125  126 2   
   129  125  144 1   
   130  127  128 1   
   131  127  137 1   
   132  127  138 1   
   133  128  129 ar  
   134  128  130 ar  
   135  129  131 ar  
   136  129  139 1   
   137  130  132 ar  
   138  130  140 1   
   139  131  133 ar  
   140  131  141 1   
   141  132  133 ar  
   142  132  142 1   
   143  133  134 1   
   144  134  143 1   
   145  144  145 1   
   146  144  153 1   
   147  145  146 1   
   148  145  148 1   
   149  145  154 1   
   150  146  147 2   
   151  146  159 1   
   152  148  149 1   
   153  148  155 1   
   154  148  156 1   
   155  149  150 1   
   156  149  157 1   
   157  149  158 1   
   158  150  151 1   
   159  150  152 1   
   160  159  160 1   
   161  159  168 1   
   162  160  161 1   
   163  160  163 1   
   164  160  169 1   
   165  161  162 2   
   166  161  174 1   
   167  163  164 1   
   168  163  170 1   
   169  163  171 1   
   170  164  165 1   
   171  164  172 1   
   172  164  173 1   
   173  165  166 1   
   174  165  167 1   
   175  174  175 1   
   176  174  179 1   
   177  175  176 1   
   178  175  177 1   
   179  175  178 1   
   180  181  182 1   
   181  181  183 1   
   182  184  185 1   
   183  184  186 1   
   184  187  188 1   
   185  187  189 1   
   186  190  191 1   
   187  190  192 1   
@<TRIPOS>SUBSTRUCTURE
     1 MOL         1 TEMP              0 ****  ****    0 ROOT
