@<TRIPOS>MOLECULE
MOL
  189   185     1     0     0
SMALL
resp


@<TRIPOS>ATOM
      1 C1          5.1170    3.8330   -3.7340 c3        1 MOL     -0.615764
      2 C2          5.6370    3.1770   -2.4990 c         1 MOL      0.796550
      3 O1          4.9670    3.0240   -1.4480 o         1 MOL     -0.633496
      4 H1          5.8320    3.6990   -4.5460 hc        1 MOL      0.162151
      5 H2          4.1640    3.3820   -4.0120 hc        1 MOL      0.162151
      6 H3          4.9750    4.8980   -3.5490 hc        1 MOL      0.162151
      7 N1          6.8790    2.6520   -2.4830 n         1 MOL     -0.609728
      8 C3          7.4260    1.6150   -1.6460 c3        1 MOL      0.300378
      9 C4          6.4570    0.4300   -1.2310 c         1 MOL      0.236424
     10 O2          5.7390    0.4360   -0.2490 o         1 MOL     -0.416947
     11 C5          8.2690    2.0960   -0.5220 c3        1 MOL     -0.102147
     12 C6          7.6500    3.2090    0.2290 c         1 MOL      0.788543
     13 O3          6.6610    2.9950    0.9320 o         1 MOL     -0.769014
     14 O4          8.2110    4.3380   -0.0050 o         1 MOL     -0.769014
     15 H4          7.3590    2.8040   -3.3600 hn        1 MOL      0.283928
     16 H5          8.2330    1.1300   -2.1990 h1        1 MOL     -0.003999
     17 H6          9.2210    2.4920   -0.8770 hc        1 MOL     -0.000318
     18 H7          8.4750    1.2680    0.1600 hc        1 MOL     -0.000318
     19 N2          6.2720   -0.4710   -2.2040 n         1 MOL     -0.114624
     20 C7          5.3930   -1.6230   -2.4710 c3        1 MOL     -0.068386
     21 C8          5.6970   -2.7910   -1.5830 c         1 MOL      0.394064
     22 O5          6.1400   -3.8530   -2.0780 o         1 MOL     -0.542195
     23 C9          3.9110   -1.1960   -2.6050 c3        1 MOL      0.072323
     24 C10         2.7780   -2.1850   -2.9200 c3        1 MOL     -0.013459
     25 C11         3.8050   -0.0780   -3.7190 c3        1 MOL     -0.376618
     26 C12         2.9800   -3.0160   -4.1870 c3        1 MOL     -0.256668
     27 H8          6.8870   -0.2590   -2.9820 hn        1 MOL      0.161428
     28 H9          5.5680   -1.8840   -3.5110 h1        1 MOL      0.081259
     29 H10         3.7210   -0.6550   -1.6840 hc        1 MOL     -0.055440
     30 H11         1.8220   -1.6770   -3.0080 hc        1 MOL      0.101797
     31 H12         2.6580   -2.8200   -2.0350 hc        1 MOL      0.101797
     32 H13         4.2010   -0.5570   -4.6210 hc        1 MOL      0.084711
     33 H14         2.8060    0.3490   -3.8160 hc        1 MOL      0.084711
     34 H15         4.4460    0.7590   -3.4500 hc        1 MOL      0.084711
     35 H16         3.7190   -3.7590   -3.8920 hc        1 MOL      0.049923
     36 H17         2.0020   -3.4580   -4.4060 hc        1 MOL      0.049923
     37 H18         3.2920   -2.4700   -5.0750 hc        1 MOL      0.049923
     38 N3          5.5490   -2.5520   -0.3020 n         1 MOL     -0.159984
     39 C13         6.1420   -3.4950    0.6470 c3        1 MOL      0.313448
     40 C14         5.2950   -4.7440    0.9770 c         1 MOL      0.368408
     41 O6          5.7200   -5.8890    1.0060 o         1 MOL     -0.564837
     42 C15         6.7580   -2.8670    1.8960 c3        1 MOL     -0.338270
     43 C16         7.8780   -1.9090    1.4120 c         1 MOL      0.720255
     44 O7          8.0320   -0.7890    1.9890 o         1 MOL     -0.696151
     45 O8          8.4760   -2.1810    0.3780 o         1 MOL     -0.696151
     46 H19         5.3660   -1.6090    0.0090 hn        1 MOL      0.160602
     47 H20         6.9710   -3.9830    0.1320 h1        1 MOL      0.016122
     48 H21         7.2810   -3.6620    2.4240 hc        1 MOL      0.072841
     49 H22         5.9530   -2.4650    2.5070 hc        1 MOL      0.072841
     50 N4          3.9880   -4.7610    1.3220 n         1 MOL     -0.367552
     51 C17         3.0820   -3.5670    1.5690 c3        1 MOL     -0.001898
     52 C18         1.9090   -3.8520    2.5240 c         1 MOL      0.538391
     53 O9          1.3580   -4.9870    2.5440 o         1 MOL     -0.576680
     54 H23         3.5880   -5.6750    1.4910 hn        1 MOL      0.276520
     55 H24         2.6590   -3.2510    0.6230 h1        1 MOL      0.028845
     56 H25         3.6990   -2.7310    1.8920 h1        1 MOL      0.028845
     57 N5          1.4470   -2.9360    3.4130 n         1 MOL     -0.580919
     58 C19         1.7340   -1.5140    3.5820 c3        1 MOL      0.377192
     59 C20         1.9220   -0.6900    2.2680 c         1 MOL      0.359639
     60 O10         2.8890    0.0460    2.1180 o         1 MOL     -0.576611
     61 C21         2.9030   -1.4170    4.6380 c3        1 MOL     -0.315087
     62 C22         3.3040   -0.0050    5.0830 c         1 MOL      0.758119
     63 O11         4.5450    0.2240    5.1690 o         1 MOL     -0.713502
     64 O12         2.4430    0.8900    5.2430 o         1 MOL     -0.713502
     65 H26         0.6370   -3.2300    3.9510 hn        1 MOL      0.311889
     66 H27         0.8780   -1.1100    4.1130 h1        1 MOL      0.002908
     67 H28         3.7540   -1.8910    4.1590 hc        1 MOL      0.069178
     68 H29         2.5920   -1.9870    5.5120 hc        1 MOL      0.069178
     69 N6          1.1230   -0.7750    1.1990 n         1 MOL     -0.136067
     70 C23        -0.2140   -1.2920    1.1600 c3        1 MOL     -0.141133
     71 C24        -0.4070   -2.5630    0.3440 c         1 MOL      0.654084
     72 O13         0.3170   -2.8050   -0.6250 o         1 MOL     -0.574322
     73 H30         1.4470   -0.4630    0.2930 hn        1 MOL      0.172982
     74 H31        -0.8390   -0.5680    0.6280 h1        1 MOL      0.051207
     75 H32        -0.6080   -1.5540    2.1410 h1        1 MOL      0.051207
     76 N7         -1.3600   -3.3970    0.7220 n         1 MOL     -0.333566
     77 C25        -1.6320   -4.7310    0.0890 c3        1 MOL      0.028101
     78 C26        -2.0710   -4.6670   -1.3990 c         1 MOL      0.373326
     79 O14        -2.0350   -5.6360   -2.1680 o         1 MOL     -0.518058
     80 C27        -2.6190   -5.5340    0.9740 c3        1 MOL     -0.285112
     81 C28        -4.0310   -5.0880    0.9720 c3        1 MOL      0.143330
     82 C29        -4.4640   -4.2210    2.1320 c         1 MOL      0.503639
     83 N8         -5.7050   -4.1480    2.4020 n         1 MOL     -0.728042
     84 O15        -3.6530   -3.5480    2.7510 o         1 MOL     -0.518297
     85 H33        -1.8480   -3.1850    1.5770 hn        1 MOL      0.184047
     86 H34        -0.6770   -5.2440    0.1020 h1        1 MOL      0.099084
     87 H35        -2.2650   -5.4810    1.9950 hc        1 MOL      0.105899
     88 H36        -2.6500   -6.5520    0.5650 hc        1 MOL      0.105899
     89 H37        -4.6500   -5.9930    1.0090 hc        1 MOL     -0.009398
     90 H38        -4.2450   -4.5630    0.0500 hc        1 MOL     -0.009398
     91 H39        -6.3840   -4.5920    1.8040 hn        1 MOL      0.353116
     92 H40        -5.9230   -3.6410    3.2380 hn        1 MOL      0.353116
     93 N9         -2.6610   -3.5360   -1.7520 n         1 MOL     -0.023869
     94 C30        -3.1170   -3.1170   -3.0920 c3        1 MOL     -0.201889
     95 C31        -4.5590   -2.5400   -3.0700 c         1 MOL      0.625958
     96 O16        -5.2350   -2.8400   -4.0180 o         1 MOL     -0.559560
     97 C32        -2.1800   -2.0850   -3.6740 c3        1 MOL      0.154260
     98 C33        -0.8840   -2.6850   -4.1990 c3        1 MOL     -0.303886
     99 C34        -1.7920   -0.8220   -2.8600 c3        1 MOL     -0.303886
    100 H41        -2.6550   -2.8120   -1.0500 hn        1 MOL      0.065937
    101 H42        -3.0910   -3.9470   -3.7910 h1        1 MOL      0.126042
    102 H43        -2.6410   -1.6450   -4.5540 hc        1 MOL      0.015010
    103 H44        -1.0640   -3.6690   -4.6180 hc        1 MOL      0.081779
    104 H45        -0.2770   -2.0380   -4.8390 hc        1 MOL      0.081779
    105 H46        -0.2830   -2.8980   -3.3100 hc        1 MOL      0.081779
    106 H47        -2.6520   -0.1910   -2.6670 hc        1 MOL      0.081779
    107 H48        -1.3230   -1.1000   -1.9180 hc        1 MOL      0.081779
    108 H49        -0.9810   -0.2670   -3.3260 hc        1 MOL      0.081779
    109 N10        -4.9380   -1.7320   -2.0990 n         1 MOL     -0.495020
    110 C35        -6.3750   -1.2150   -2.0290 c3        1 MOL      0.040139
    111 C36        -6.4330    0.3030   -1.5750 c         1 MOL      0.687829
    112 O17        -7.3750    0.9890   -2.0270 o         1 MOL     -0.577386
    113 C37        -7.1240   -2.1030   -1.0050 c3        1 MOL     -0.486961
    114 C38        -7.1780   -3.5270   -1.4240 c         1 MOL      0.745080
    115 N11        -7.8240   -3.8420   -2.5410 n         1 MOL     -0.775486
    116 O18        -6.8590   -4.4600   -0.7000 o         1 MOL     -0.574445
    117 H50        -4.3250   -1.5080   -1.3260 hn        1 MOL      0.327920
    118 H51        -6.8990   -1.2670   -2.9880 h1        1 MOL      0.085248
    119 H52        -8.1280   -1.6870   -0.9560 hc        1 MOL      0.153808
    120 H53        -6.7360   -2.1860    0.0130 hc        1 MOL      0.153808
    121 H54        -8.0180   -3.1250   -3.2270 hn        1 MOL      0.358398
    122 H55        -8.2580   -4.7320   -2.7300 hn        1 MOL      0.358398
    123 N12        -5.4830    0.7540   -0.7660 n         1 MOL     -0.643388
    124 C39        -5.5770    1.9840   -0.0320 c3        1 MOL      0.338210
    125 C40        -4.2270    2.7300    0.1230 c         1 MOL      0.403573
    126 O19        -3.0940    2.1940    0.3000 o         1 MOL     -0.460222
    127 C41        -6.3000    1.7650    1.3820 c3        1 MOL     -0.127012
    128 C42        -7.6400    1.1470    1.3880 ca        1 MOL      0.014683
    129 C43        -8.7200    1.9900    1.1560 ca        1 MOL     -0.080401
    130 C44        -7.8970   -0.1910    1.6990 ca        1 MOL     -0.080401
    131 C45       -10.0370    1.5680    1.2230 ca        1 MOL     -0.327867
    132 C46        -9.2060   -0.6930    1.7090 ca        1 MOL     -0.327867
    133 C47       -10.2910    0.1760    1.5150 ca        1 MOL      0.402006
    134 O20       -11.5430   -0.1620    1.7870 oh        1 MOL     -0.523124
    135 H56        -4.8400    0.0980   -0.3210 hn        1 MOL      0.300205
    136 H57        -6.2420    2.7350   -0.4600 h1        1 MOL     -0.012060
    137 H58        -6.4720    2.7360    1.8300 hc        1 MOL      0.074545
    138 H59        -5.7040    1.0890    1.9950 hc        1 MOL      0.074545
    139 H60        -8.5450    3.0410    0.9760 ha        1 MOL      0.119997
    140 H61        -6.9960   -0.7480    1.9240 ha        1 MOL      0.119997
    141 H62       -10.8870    2.2150    1.0500 ha        1 MOL      0.146565
    142 H63        -9.4140   -1.7070    2.0330 ha        1 MOL      0.146565
    143 H64       -12.1300    0.6000    1.8040 ho        1 MOL      0.382951
    144 N13        -4.3840    4.0450    0.1060 n         1 MOL     -0.561330
    145 C48        -3.3760    5.0110    0.5130 c3        1 MOL     -0.019914
    146 C49        -1.9570    4.9370   -0.1830 c         1 MOL      0.500642
    147 O21        -1.0150    5.5730    0.2620 o         1 MOL     -0.473375
    148 C50        -3.2690    5.1030    2.0270 c3        1 MOL      0.146260
    149 C51        -4.6680    5.3620    2.7190 c3        1 MOL     -0.114000
    150 C52        -4.5000    5.2100    4.2650 c         1 MOL      0.663375
    151 O22        -5.5430    5.2890    4.9910 o         1 MOL     -0.721962
    152 O23        -3.3360    5.0580    4.7590 o         1 MOL     -0.721962
    153 H65        -5.2970    4.4150   -0.0790 hn        1 MOL      0.343626
    154 H66        -3.6860    6.0060    0.1810 h1        1 MOL      0.049094
    155 H67        -2.5700    5.9110    2.2550 hc        1 MOL      0.030895
    156 H68        -2.9190    4.1680    2.4610 hc        1 MOL      0.030895
    157 H69        -5.4530    4.6910    2.3540 hc        1 MOL     -0.032328
    158 H70        -5.0430    6.3760    2.5970 hc        1 MOL     -0.032328
    159 N14        -1.8400    4.3200   -1.3520 n         1 MOL     -0.554205
    160 C53        -0.5980    4.2300   -2.1030 c3        1 MOL      0.033673
    161 C54        -0.7350    5.0620   -3.4060 c         1 MOL      0.480196
    162 O24         0.2840    5.4190   -4.0540 o         1 MOL     -0.562159
    163 C55        -0.2640    2.8090   -2.4440 c3        1 MOL     -0.147700
    164 C56         0.0210    1.8740   -1.2560 c3        1 MOL      0.635531
    165 C57         1.4120    2.1290   -0.5710 c         1 MOL      0.452841
    166 O25         1.5940    3.1180    0.1940 o         1 MOL     -0.620748
    167 O26         2.2730    1.2760   -0.7180 o         1 MOL     -0.620748
    168 H71        -2.5790    3.6650   -1.5680 hn        1 MOL      0.316212
    169 H72         0.2400    4.5540   -1.4860 h1        1 MOL      0.124497
    170 H73         0.5490    2.7100   -3.1680 hc        1 MOL      0.005543
    171 H74        -1.1050    2.3260   -2.9440 hc        1 MOL      0.005543
    172 H75         0.0420    0.8050   -1.4850 hc        1 MOL     -0.209642
    173 H76        -0.8160    2.0740   -0.5830 hc        1 MOL     -0.209642
    174 N15        -1.9300    5.2840   -3.8400 n         1 MOL     -0.188994
    175 C58        -2.3050    5.9220   -5.0810 c3        1 MOL     -0.255751
    176 H77        -1.5160    5.7750   -5.8180 h1        1 MOL      0.101223
    177 H78        -3.2320    5.4830   -5.4500 h1        1 MOL      0.101223
    178 H79        -2.4500    6.9890   -4.9120 h1        1 MOL      0.101223
    179 H80        -2.7330    4.9340   -3.3450 hn        1 MOL      0.205331
    180 Ca1         4.1570    1.9770    0.9190 Ca        1 MOL      1.790562
    181 O27         4.1350    4.6950    1.0300 oh        1 MOL     -0.886240
    182 H81         4.7280    5.2230    0.4930 ho        1 MOL      0.421511
    183 H82         3.3600    5.2340    1.1380 ho        1 MOL      0.421511
    184 O28         3.2440    2.6700    3.4620 oh        1 MOL     -0.886240
    185 H83         2.9980    1.9950    4.0860 ho        1 MOL      0.421511
    186 H84         3.1840    3.4900    3.9480 ho        1 MOL      0.421511
    187 O29         5.7340    0.6500    2.7670 oh        1 MOL     -0.886240
    188 H85         6.6010    0.2550    2.6910 ho        1 MOL      0.421511
    189 H86         5.4720    0.4920    3.6710 ho        1 MOL      0.421511
@<TRIPOS>BOND
     1    1    2 1   
     2    1    4 1   
     3    1    5 1   
     4    1    6 1   
     5    2    3 2   
     6    2    7 1   
     7    7    8 1   
     8    7   15 1   
     9    8    9 1   
    10    8   11 1   
    11    8   16 1   
    12    9   10 2   
    13    9   19 1   
    14   11   12 1   
    15   11   17 1   
    16   11   18 1   
    17   12   13 1   
    18   12   14 1   
    19   19   20 1   
    20   19   27 1   
    21   20   21 1   
    22   20   23 1   
    23   20   28 1   
    24   21   22 2   
    25   21   38 1   
    26   23   24 1   
    27   23   25 1   
    28   23   29 1   
    29   24   26 1   
    30   24   30 1   
    31   24   31 1   
    32   25   32 1   
    33   25   33 1   
    34   25   34 1   
    35   26   35 1   
    36   26   36 1   
    37   26   37 1   
    38   38   39 1   
    39   38   46 1   
    40   39   40 1   
    41   39   42 1   
    42   39   47 1   
    43   40   41 2   
    44   40   50 1   
    45   42   43 1   
    46   42   48 1   
    47   42   49 1   
    48   43   44 1   
    49   43   45 1   
    50   50   51 1   
    51   50   54 1   
    52   51   52 1   
    53   51   55 1   
    54   51   56 1   
    55   52   53 2   
    56   52   57 1   
    57   57   58 1   
    58   57   65 1   
    59   58   59 1   
    60   58   61 1   
    61   58   66 1   
    62   59   60 2   
    63   59   69 1   
    64   61   62 1   
    65   61   67 1   
    66   61   68 1   
    67   62   63 1   
    68   62   64 1   
    69   69   70 1   
    70   69   73 1   
    71   70   71 1   
    72   70   74 1   
    73   70   75 1   
    74   71   72 2   
    75   71   76 1   
    76   76   77 1   
    77   76   85 1   
    78   77   78 1   
    79   77   80 1   
    80   77   86 1   
    81   78   79 2   
    82   78   93 1   
    83   80   81 1   
    84   80   87 1   
    85   80   88 1   
    86   81   82 1   
    87   81   89 1   
    88   81   90 1   
    89   82   83 1   
    90   82   84 2   
    91   83   91 1   
    92   83   92 1   
    93   93   94 1   
    94   93  100 1   
    95   94   95 1   
    96   94   97 1   
    97   94  101 1   
    98   95   96 2   
    99   95  109 1   
   100   97   98 1   
   101   97   99 1   
   102   97  102 1   
   103   98  103 1   
   104   98  104 1   
   105   98  105 1   
   106   99  106 1   
   107   99  107 1   
   108   99  108 1   
   109  109  110 1   
   110  109  117 1   
   111  110  111 1   
   112  110  113 1   
   113  110  118 1   
   114  111  112 2   
   115  111  123 1   
   116  113  114 1   
   117  113  119 1   
   118  113  120 1   
   119  114  115 1   
   120  114  116 2   
   121  115  121 1   
   122  115  122 1   
   123  123  124 1   
   124  123  135 1   
   125  124  125 1   
   126  124  127 1   
   127  124  136 1   
   128  125  126 2   
   129  125  144 1   
   130  127  128 1   
   131  127  137 1   
   132  127  138 1   
   133  128  129 ar  
   134  128  130 ar  
   135  129  131 ar  
   136  129  139 1   
   137  130  132 ar  
   138  130  140 1   
   139  131  133 ar  
   140  131  141 1   
   141  132  133 ar  
   142  132  142 1   
   143  133  134 1   
   144  134  143 1   
   145  144  145 1   
   146  144  153 1   
   147  145  146 1   
   148  145  148 1   
   149  145  154 1   
   150  146  147 2   
   151  146  159 1   
   152  148  149 1   
   153  148  155 1   
   154  148  156 1   
   155  149  150 1   
   156  149  157 1   
   157  149  158 1   
   158  150  151 1   
   159  150  152 1   
   160  159  160 1   
   161  159  168 1   
   162  160  161 1   
   163  160  163 1   
   164  160  169 1   
   165  161  162 2   
   166  161  174 1   
   167  163  164 1   
   168  163  170 1   
   169  163  171 1   
   170  164  165 1   
   171  164  172 1   
   172  164  173 1   
   173  165  166 1   
   174  165  167 1   
   175  174  175 1   
   176  174  179 1   
   177  175  176 1   
   178  175  177 1   
   179  175  178 1   
   180  181  182 1   
   181  181  183 1   
   182  184  185 1   
   183  184  186 1   
   184  187  188 1   
   185  187  189 1   
@<TRIPOS>SUBSTRUCTURE
     1 MOL         1 TEMP              0 ****  ****    0 ROOT
