@<TRIPOS>MOLECULE
MOL
  188   182     1     0     0
SMALL
resp


@<TRIPOS>ATOM
      1 C1          3.6090   -0.5560    3.6430 c3        1 MOL     -0.360955
      2 C2          4.3980   -0.5960    2.3680 c         1 MOL      0.470753
      3 O1          3.9410   -0.9240    1.3110 o         1 MOL     -0.417124
      4 H1          3.0310    0.3670    3.6830 hc        1 MOL      0.100841
      5 H2          2.9320   -1.4100    3.6790 hc        1 MOL      0.100841
      6 H3          4.2890   -0.5950    4.4930 hc        1 MOL      0.100841
      7 N1          5.6790   -0.1850    2.4300 n         1 MOL     -0.352330
      8 C3          6.6730   -0.1790    1.3310 c3        1 MOL     -0.132807
      9 C4          6.7250   -1.4580    0.4880 c         1 MOL      0.579657
     10 O2          7.0070   -1.4600   -0.7070 o         1 MOL     -0.463934
     11 C5          6.7070    1.0410    0.3970 c3        1 MOL     -0.178501
     12 C6          8.0210    1.4000   -0.3580 c         1 MOL      0.696031
     13 O3          7.9580    2.0400   -1.4500 o         1 MOL     -0.653505
     14 O4          9.1250    1.1090    0.1880 o         1 MOL     -0.653505
     15 H4          5.9140    0.1790    3.3460 hn        1 MOL      0.269584
     16 H5          7.6070   -0.2550    1.9030 h1        1 MOL      0.057426
     17 H6          6.4390    1.9230    0.9880 hc        1 MOL      0.094364
     18 H7          5.8950    0.9990   -0.3300 hc        1 MOL      0.094364
     19 N2          6.4680   -2.6520    1.1150 n         1 MOL     -0.532855
     20 C7          6.3820   -3.9930    0.4920 c3        1 MOL      0.011376
     21 C8          5.2090   -4.3650   -0.3960 c         1 MOL      0.481783
     22 O5          5.0140   -5.5260   -0.7420 o         1 MOL     -0.529345
     23 C9          6.4700   -5.0370    1.6960 c3        1 MOL     -0.256658
     24 C10         7.8070   -4.7750    2.4720 c3        1 MOL      0.061279
     25 C11         7.9030   -5.8550    3.5300 c3        1 MOL     -0.084199
     26 C12         9.1730   -5.6560    4.3990 c3        1 MOL      0.012334
     27 N3         10.3970   -5.7280    3.5390 n4        1 MOL     -0.339809
     28 H8          6.2410   -2.5370    2.0920 hn        1 MOL      0.281128
     29 H9          7.2680   -4.1280   -0.1310 h1        1 MOL      0.105993
     30 H10         6.4780   -6.0060    1.1920 hc        1 MOL      0.109613
     31 H11         5.6560   -4.9590    2.4200 hc        1 MOL      0.109613
     32 H12         7.7020   -3.8050    2.9520 hc        1 MOL      0.027239
     33 H13         8.6940   -4.7440    1.8480 hc        1 MOL      0.027239
     34 H14         8.0260   -6.8330    3.0610 hc        1 MOL      0.055993
     35 H15         7.0020   -5.8420    4.1400 hc        1 MOL      0.055993
     36 H16         9.2070   -6.3660    5.2200 hx        1 MOL      0.078611
     37 H17         9.1860   -4.6620    4.8490 hx        1 MOL      0.078611
     38 H18        10.6230   -4.8740    3.0430 hn        1 MOL      0.289404
     39 H19        11.0890   -5.9660    4.2390 hn        1 MOL      0.289404
     40 H20        10.2920   -6.5530    2.9650 hn        1 MOL      0.289404
     41 N4          4.4950   -3.3160   -0.7870 n         1 MOL     -0.275422
     42 C13         3.2900   -3.3830   -1.5340 c3        1 MOL      0.107267
     43 C14         3.1050   -2.3520   -2.6260 c         1 MOL      0.540877
     44 O6          3.8150   -1.3630   -2.7660 o         1 MOL     -0.513262
     45 C15         2.2370   -3.2860   -0.3370 c3        1 MOL     -0.172843
     46 C16         0.8100   -3.6470   -0.5820 c         1 MOL      0.550916
     47 O7         -0.0680   -3.4240    0.3050 o         1 MOL     -0.641293
     48 O8          0.4600   -4.2000   -1.6540 o         1 MOL     -0.641293
     49 H21         4.9370   -2.4370   -0.5860 hn        1 MOL      0.196702
     50 H22         3.3340   -4.3900   -1.9580 h1        1 MOL      0.015263
     51 H23         2.1270   -2.2830    0.0720 hc        1 MOL      0.078743
     52 H24         2.6170   -3.8450    0.5110 hc        1 MOL      0.078743
     53 N5          2.1400   -2.6060   -3.5110 n         1 MOL     -0.389355
     54 C17         1.8670   -1.8790   -4.7890 c3        1 MOL     -0.193071
     55 C18         0.9120   -0.6650   -4.7510 c         1 MOL      0.545668
     56 O9          0.1520   -0.4210   -5.7550 o         1 MOL     -0.574858
     57 H25         1.6860   -3.4940   -3.4080 hn        1 MOL      0.264978
     58 H26         1.3680   -2.5660   -5.4750 h1        1 MOL      0.128418
     59 H27         2.7490   -1.5180   -5.3200 h1        1 MOL      0.128418
     60 N6          0.8730    0.0240   -3.6140 n         1 MOL     -0.397253
     61 C19        -0.0820    1.1810   -3.3780 c3        1 MOL     -0.003347
     62 C20         0.5370    2.5560   -3.2480 c         1 MOL      0.455595
     63 O10        -0.1580    3.5430   -3.0200 o         1 MOL     -0.536630
     64 C21        -1.0260    0.8400   -2.0890 c3        1 MOL      0.144401
     65 C22        -1.8300   -0.3990   -2.2970 c         1 MOL      0.485565
     66 N7         -2.7590   -0.4630   -3.2250 n         1 MOL     -0.613435
     67 O11        -1.6730   -1.4130   -1.5380 o         1 MOL     -0.667338
     68 H28         1.4270   -0.3620   -2.8600 hn        1 MOL      0.290286
     69 H29        -0.8950    1.3100   -4.0900 h1        1 MOL      0.084103
     70 H30        -1.6880    1.6940   -1.9280 hc        1 MOL      0.034480
     71 H31        -0.3880    0.7650   -1.2060 hc        1 MOL      0.034480
     72 H32        -2.9710    0.2360   -3.9160 hn        1 MOL      0.337544
     73 H33        -3.3270   -1.3020   -3.2040 hn        1 MOL      0.337544
     74 N8          1.8800    2.6630   -3.3010 n         1 MOL     -0.246092
     75 C23         2.6580    3.9610   -3.1250 c3        1 MOL     -0.227358
     76 C24         2.3970    4.5270   -1.7310 c         1 MOL      0.673280
     77 O12         2.3180    5.7400   -1.6190 o         1 MOL     -0.583559
     78 H34         2.3770    1.8520   -3.6380 hn        1 MOL      0.218278
     79 H35         2.4750    4.7010   -3.9120 h1        1 MOL      0.145967
     80 H36         3.7280    3.7390   -3.1050 h1        1 MOL      0.145967
     81 N9          2.1680    3.7250   -0.7130 n         1 MOL     -0.383139
     82 C25         1.8970    4.1350    0.6800 c3        1 MOL      0.154228
     83 C26         0.8190    3.2150    1.2570 c         1 MOL      0.400666
     84 O13         1.0340    1.9730    1.1580 o         1 MOL     -0.459718
     85 C27         3.1870    4.1990    1.5420 c3        1 MOL     -0.094392
     86 C28         4.3090    5.1330    1.1570 ca        1 MOL      0.011352
     87 C29         5.5310    4.6780    0.5150 ca        1 MOL     -0.110573
     88 C30         4.2840    6.4710    1.4640 ca        1 MOL     -0.110573
     89 C31         6.6320    5.4560    0.3090 ca        1 MOL     -0.304480
     90 C32         5.2970    7.3540    1.0990 ca        1 MOL     -0.304480
     91 C33         6.4730    6.8400    0.5270 ca        1 MOL      0.412394
     92 O14         7.4890    7.7070    0.4020 oh        1 MOL     -0.453468
     93 H37         2.0510    2.7540   -0.9350 hn        1 MOL      0.190496
     94 H38         1.4260    5.1180    0.6340 h1        1 MOL      0.038743
     95 H39         3.6720    3.2220    1.6480 hc        1 MOL      0.044333
     96 H40         2.9070    4.5570    2.5330 hc        1 MOL      0.044333
     97 H41         5.4650    3.6540    0.2040 ha        1 MOL      0.079131
     98 H42         3.4090    6.7780    2.0120 ha        1 MOL      0.079131
     99 H43         7.5590    5.0200   -0.0690 ha        1 MOL      0.167665
    100 H44         5.1310    8.4020    1.3270 ha        1 MOL      0.167665
    101 H45         7.1990    8.6050    0.6060 ho        1 MOL      0.314722
    102 N10        -0.3590    3.7250    1.6800 n         1 MOL     -0.475764
    103 C34        -1.6370    2.9960    1.9380 c3        1 MOL      0.058763
    104 C35        -2.4360    2.9350    0.6010 c         1 MOL      0.496303
    105 O15        -2.9200    1.8470    0.2670 o         1 MOL     -0.524825
    106 C36        -2.2590    3.5910    3.1530 c3        1 MOL      0.004248
    107 C37        -1.3600    3.3200    4.3920 c3        1 MOL      0.148503
    108 C38        -3.7160    3.0950    3.3100 c3        1 MOL     -0.396398
    109 C39        -1.9250    4.0440    5.6330 c3        1 MOL     -0.199691
    110 H46        -0.4230    4.7300    1.5770 hn        1 MOL      0.274374
    111 H47        -1.3450    1.9880    2.2200 h1        1 MOL      0.087477
    112 H48        -2.4210    4.6390    2.9340 hc        1 MOL      0.016592
    113 H49        -0.3890    3.7850    4.2470 hc        1 MOL      0.013857
    114 H50        -1.2020    2.2570    4.5550 hc        1 MOL      0.013857
    115 H51        -4.1810    2.9900    2.3360 hc        1 MOL      0.108422
    116 H52        -3.9140    2.2600    3.9720 hc        1 MOL      0.108422
    117 H53        -4.3140    3.8000    3.9020 hc        1 MOL      0.108422
    118 H54        -2.9850    3.8900    5.7870 hc        1 MOL      0.044454
    119 H55        -1.3900    3.7750    6.5430 hc        1 MOL      0.044454
    120 H56        -1.7740    5.1150    5.4650 hc        1 MOL      0.044454
    121 N11        -2.5880    4.0080   -0.1330 n         1 MOL     -0.361111
    122 C40        -3.4160    4.1220   -1.3310 c3        1 MOL     -0.154261
    123 C41        -4.9390    4.0460   -0.9490 c         1 MOL      0.431571
    124 O16        -5.6710    3.7320   -1.8730 o         1 MOL     -0.496749
    125 C42        -3.1830    5.5330   -2.0070 c3        1 MOL      0.330812
    126 O17        -1.8220    5.8760   -2.2510 oh        1 MOL     -0.648010
    127 H57        -2.0570    4.8410    0.0880 hn        1 MOL      0.284176
    128 H58        -3.1550    3.3260   -2.0220 h1        1 MOL      0.085928
    129 H59        -3.7620    6.2470   -1.4230 h1        1 MOL      0.016547
    130 H60        -3.7100    5.5550   -2.9570 h1        1 MOL      0.016547
    131 H61        -1.3900    5.2980   -2.8810 ho        1 MOL      0.434964
    132 N12        -5.3720    4.3200    0.2800 n         1 MOL     -0.355668
    133 C43        -6.6120    4.0020    0.9780 c3        1 MOL      0.331360
    134 C44        -7.0350    2.5490    0.8980 c         1 MOL      0.493137
    135 O18        -8.2120    2.3130    0.9600 o         1 MOL     -0.531782
    136 C45        -7.7020    4.9720    0.5490 c3        1 MOL     -0.640969
    137 H62        -4.6850    4.7540    0.8740 hn        1 MOL      0.224205
    138 H63        -6.3710    4.1900    2.0260 h1        1 MOL     -0.001996
    139 H64        -8.0500    4.5870   -0.4050 hc        1 MOL      0.179227
    140 H65        -8.4840    4.9470    1.3120 hc        1 MOL      0.179227
    141 H66        -7.2600    5.9670    0.4420 hc        1 MOL      0.179227
    142 N13        -6.1050    1.6290    0.5220 n         1 MOL     -0.505487
    143 C46        -6.6320    0.4450   -0.0520 c3        1 MOL      0.603008
    144 C47        -6.8900   -0.6920    0.9570 c         1 MOL      0.348789
    145 O19        -6.3050   -0.6310    2.0070 o         1 MOL     -0.539051
    146 C48        -5.8030    0.0710   -1.2470 c3        1 MOL     -0.473544
    147 H67        -5.1150    1.7730    0.4320 hn        1 MOL      0.288369
    148 H68        -7.5850    0.7870   -0.4510 h1        1 MOL     -0.047121
    149 H69        -6.0500   -0.9250   -1.6110 hc        1 MOL      0.100384
    150 H70        -6.0110    0.8440   -1.9910 hc        1 MOL      0.100384
    151 H71        -4.7510    0.1620   -0.9660 hc        1 MOL      0.100384
    152 N14        -7.7540   -1.6080    0.6170 n         1 MOL     -0.601849
    153 C49        -8.1310   -2.8300    1.4130 c3        1 MOL     -0.052510
    154 C50        -8.4910   -2.7460    2.9100 c         1 MOL      0.257698
    155 O20        -8.9250   -3.8030    3.4950 o         1 MOL     -0.500380
    156 C51        -6.8920   -3.8180    1.3200 c3        1 MOL      0.156900
    157 C52        -6.8410   -4.3620   -0.1980 c3        1 MOL      0.000016
    158 C53        -5.6530   -5.2840   -0.3390 c         1 MOL      0.462432
    159 O21        -5.6550   -6.4000    0.1920 o         1 MOL     -0.618759
    160 O22        -4.6190   -4.8630   -0.8770 o         1 MOL     -0.618759
    161 H72        -8.0590   -1.5600   -0.3440 hn        1 MOL      0.350980
    162 H73        -8.9540   -3.3000    0.8690 h1        1 MOL      0.148656
    163 H74        -7.1000   -4.7230    1.8880 hc        1 MOL      0.046296
    164 H75        -6.0330   -3.2640    1.6840 hc        1 MOL      0.046296
    165 H76        -6.7210   -3.4890   -0.8470 hc        1 MOL     -0.035319
    166 H77        -7.7630   -4.8930   -0.4290 hc        1 MOL     -0.035319
    167 N15        -8.5240   -1.5730    3.5020 n         1 MOL     -0.075993
    168 C54        -8.9840   -1.2790    4.8080 c3        1 MOL     -0.154139
    169 H78        -9.6040   -0.3830    4.7810 h1        1 MOL      0.078188
    170 H79        -9.5730   -2.1150    5.1830 h1        1 MOL      0.078188
    171 H80        -8.1310   -1.1100    5.4650 h1        1 MOL      0.078188
    172 H81        -7.9930   -0.8690    3.0060 hn        1 MOL      0.240030
    173 Ca1        -2.1860   -3.8830   -1.2630 Ca        1 MOL      1.726070
    174 O23        -1.2640   -3.8730   -4.0490 oh        1 MOL     -0.838914
    175 H82        -2.0260   -4.1080   -4.5870 ho        1 MOL      0.406394
    176 H83        -0.5090   -3.9630   -4.6280 ho        1 MOL      0.406394
    177 O24        -4.3020   -3.1420   -2.9350 oh        1 MOL     -0.838914
    178 H84        -4.9140   -3.0670   -3.6650 ho        1 MOL      0.406394
    179 H85        -4.6210   -3.8850   -2.4240 ho        1 MOL      0.406394
    180 O25        -3.2990   -3.0030    1.0950 oh        1 MOL     -0.838914
    181 H86        -3.7840   -3.2160    1.8990 ho        1 MOL      0.406394
    182 H87        -3.0480   -2.0870    1.2110 ho        1 MOL      0.406394
    183 O26        -1.7040   -5.9990    0.5340 oh        1 MOL     -0.838914
    184 H88        -1.5850   -6.2650    1.4510 ho        1 MOL      0.406394
    185 H89        -2.1400   -6.7510    0.1260 ho        1 MOL      0.406394
    186 O27        -2.2100   -6.2790   -2.2220 oh        1 MOL     -0.838914
    187 H90        -1.5960   -6.8380   -2.7110 ho        1 MOL      0.406394
    188 H91        -2.8750   -6.8780   -1.8930 ho        1 MOL      0.406394
@<TRIPOS>BOND
     1    1    2 1   
     2    1    4 1   
     3    1    5 1   
     4    1    6 1   
     5    2    3 2   
     6    2    7 1   
     7    7    8 1   
     8    7   15 1   
     9    8    9 1   
    10    8   11 1   
    11    8   16 1   
    12    9   10 2   
    13    9   19 1   
    14   11   12 1   
    15   11   17 1   
    16   11   18 1   
    17   12   13 1   
    18   12   14 1   
    19   19   20 1   
    20   19   28 1   
    21   20   21 1   
    22   20   23 1   
    23   20   29 1   
    24   21   22 2   
    25   21   41 1   
    26   23   24 1   
    27   23   30 1   
    28   23   31 1   
    29   24   25 1   
    30   24   32 1   
    31   24   33 1   
    32   25   26 1   
    33   25   34 1   
    34   25   35 1   
    35   26   27 1   
    36   26   36 1   
    37   26   37 1   
    38   27   38 1   
    39   27   39 1   
    40   27   40 1   
    41   41   42 1   
    42   41   49 1   
    43   42   43 1   
    44   42   45 1   
    45   42   50 1   
    46   43   44 2   
    47   43   53 1   
    48   45   46 1   
    49   45   51 1   
    50   45   52 1   
    51   46   47 1   
    52   46   48 1   
    53   53   54 1   
    54   53   57 1   
    55   54   55 1   
    56   54   58 1   
    57   54   59 1   
    58   55   56 2   
    59   55   60 1   
    60   60   61 1   
    61   60   68 1   
    62   61   62 1   
    63   61   64 1   
    64   61   69 1   
    65   62   63 2   
    66   62   74 1   
    67   64   65 1   
    68   64   70 1   
    69   64   71 1   
    70   65   66 1   
    71   65   67 2   
    72   66   72 1   
    73   66   73 1   
    74   74   75 1   
    75   74   78 1   
    76   75   76 1   
    77   75   79 1   
    78   75   80 1   
    79   76   77 2   
    80   76   81 1   
    81   81   82 1   
    82   81   93 1   
    83   82   83 1   
    84   82   85 1   
    85   82   94 1   
    86   83   84 2   
    87   83  102 1   
    88   85   86 1   
    89   85   95 1   
    90   85   96 1   
    91   86   87 ar  
    92   86   88 ar  
    93   87   89 ar  
    94   87   97 1   
    95   88   90 ar  
    96   88   98 1   
    97   89   91 ar  
    98   89   99 1   
    99   90   91 ar  
   100   90  100 1   
   101   91   92 1   
   102   92  101 1   
   103  102  103 1   
   104  102  110 1   
   105  103  104 1   
   106  103  106 1   
   107  103  111 1   
   108  104  105 2   
   109  104  121 1   
   110  106  107 1   
   111  106  108 1   
   112  106  112 1   
   113  107  109 1   
   114  107  113 1   
   115  107  114 1   
   116  108  115 1   
   117  108  116 1   
   118  108  117 1   
   119  109  118 1   
   120  109  119 1   
   121  109  120 1   
   122  121  122 1   
   123  121  127 1   
   124  122  123 1   
   125  122  125 1   
   126  122  128 1   
   127  123  124 2   
   128  123  132 1   
   129  125  126 1   
   130  125  129 1   
   131  125  130 1   
   132  126  131 1   
   133  132  133 1   
   134  132  137 1   
   135  133  134 1   
   136  133  136 1   
   137  133  138 1   
   138  134  135 2   
   139  134  142 1   
   140  136  139 1   
   141  136  140 1   
   142  136  141 1   
   143  142  143 1   
   144  142  147 1   
   145  143  144 1   
   146  143  146 1   
   147  143  148 1   
   148  144  145 2   
   149  144  152 1   
   150  146  149 1   
   151  146  150 1   
   152  146  151 1   
   153  152  153 1   
   154  152  161 1   
   155  153  154 1   
   156  153  156 1   
   157  153  162 1   
   158  154  155 2   
   159  154  167 1   
   160  156  157 1   
   161  156  163 1   
   162  156  164 1   
   163  157  158 1   
   164  157  165 1   
   165  157  166 1   
   166  158  159 1   
   167  158  160 1   
   168  167  168 1   
   169  167  172 1   
   170  168  169 1   
   171  168  170 1   
   172  168  171 1   
   173  174  175 1   
   174  174  176 1   
   175  177  178 1   
   176  177  179 1   
   177  180  181 1   
   178  180  182 1   
   179  183  184 1   
   180  183  185 1   
   181  186  187 1   
   182  186  188 1   
@<TRIPOS>SUBSTRUCTURE
     1 MOL         1 TEMP              0 ****  ****    0 ROOT
