@<TRIPOS>MOLECULE
MOL
  195   189     1     0     0
SMALL
resp


@<TRIPOS>ATOM
      1 C1          5.6730    1.6010    5.9860 c3        1 MOL     -0.205273
      2 C2          5.3230    1.2460    4.5410 c         1 MOL      0.795082
      3 O1          5.1720    2.1270    3.7380 o         1 MOL     -0.606933
      4 H1          4.8000    2.0340    6.4750 hc        1 MOL      0.044996
      5 H2          5.9770    0.6990    6.5190 hc        1 MOL      0.044996
      6 H3          6.4900    2.3230    5.9960 hc        1 MOL      0.044996
      7 N1          5.2680   -0.0570    4.1790 n         1 MOL     -0.544720
      8 C3          5.0690   -0.5570    2.8470 c3        1 MOL      0.380972
      9 C4          3.6400   -0.3540    2.2560 c         1 MOL     -0.071387
     10 O2          3.3080   -0.8390    1.1750 o         1 MOL     -0.001206
     11 C5          5.2780   -2.0790    2.8070 c3        1 MOL     -0.090522
     12 C6          6.5740   -2.5890    3.4110 c         1 MOL      0.645671
     13 O3          6.6740   -2.6010    4.6290 o         1 MOL     -0.688629
     14 O4          7.4590   -2.9520    2.5480 o         1 MOL     -0.688629
     15 H4          5.4420   -0.7550    4.8890 hn        1 MOL      0.261933
     16 H5          5.6930   -0.0830    2.0900 h1        1 MOL      0.002081
     17 H6          5.2250   -2.3120    1.7370 hc        1 MOL     -0.035764
     18 H7          4.4370   -2.5260    3.3320 hc        1 MOL     -0.035764
     19 N2          2.7250    0.2690    3.0120 n         1 MOL     -0.317634
     20 C7          1.2450    0.2890    2.7360 c3        1 MOL      0.282609
     21 C8          0.7830    1.7530    2.3980 c         1 MOL      0.373786
     22 O5          1.2830    2.7220    3.0150 o         1 MOL     -0.474004
     23 C9          0.4920   -0.1110    4.0110 c3        1 MOL     -0.438110
     24 C10         0.6910   -1.6330    4.2650 c3        1 MOL      0.123070
     25 C11        -0.5030   -2.2050    5.1250 c3        1 MOL      0.061114
     26 C12        -0.1690   -3.6480    5.4240 c3        1 MOL     -0.130632
     27 N3         -0.5180   -4.4480    4.2030 n4        1 MOL     -0.296953
     28 H8          3.0480    0.6910    3.8800 hn        1 MOL      0.235933
     29 H9          0.9830   -0.4740    2.0000 h1        1 MOL     -0.082040
     30 H10        -0.5790   -0.0310    3.8310 hc        1 MOL      0.145574
     31 H11         0.8750    0.4190    4.8810 hc        1 MOL      0.145574
     32 H12         1.5550   -1.8610    4.8920 hc        1 MOL      0.001121
     33 H13         0.5490   -2.1170    3.3020 hc        1 MOL      0.001121
     34 H14        -1.4730   -2.1290    4.6370 hc        1 MOL      0.029073
     35 H15        -0.5800   -1.6540    6.0550 hc        1 MOL      0.029073
     36 H16        -0.7570   -3.9100    6.3020 hx        1 MOL      0.114750
     37 H17         0.9190   -3.6330    5.5330 hx        1 MOL      0.114750
     38 H18         0.1420   -4.3200    3.4520 hn        1 MOL      0.310162
     39 H19        -0.5140   -5.4370    4.4160 hn        1 MOL      0.310162
     40 H20        -1.3730   -4.1150    3.7800 hn        1 MOL      0.310162
     41 N4         -0.2090    1.9630    1.4560 n         1 MOL     -0.218642
     42 C13        -1.0450    1.1160    0.6070 c3        1 MOL     -0.111659
     43 C14        -1.7530   -0.1020    1.3860 c         1 MOL      0.535468
     44 O6         -1.1620   -1.2040    1.5160 o         1 MOL     -0.532758
     45 C15        -0.4690    0.8750   -0.7100 c3        1 MOL     -0.166853
     46 C16        -0.0080    2.1410   -1.4390 c         1 MOL      0.642454
     47 O7         -0.8380    3.0210   -1.5710 o         1 MOL     -0.691697
     48 O8          1.0690    2.2600   -2.0430 o         1 MOL     -0.691697
     49 H21        -0.2790    2.9540    1.2890 hn        1 MOL      0.169677
     50 H22        -1.8730    1.7920    0.3850 h1        1 MOL      0.024410
     51 H23        -1.1290    0.2950   -1.3660 hc        1 MOL      0.094281
     52 H24         0.3960    0.2260   -0.6800 hc        1 MOL      0.094281
     53 N5         -2.9430    0.0580    1.9770 n         1 MOL     -0.406564
     54 C17        -3.9030    1.2500    1.9250 c3        1 MOL     -0.189497
     55 C18        -5.0020    1.3290    3.0200 c         1 MOL      0.576858
     56 O9         -5.1210    0.5250    3.9420 o         1 MOL     -0.556159
     57 H25        -3.3810   -0.7520    2.3870 hn        1 MOL      0.309860
     58 H26        -4.3940    1.2430    0.9590 h1        1 MOL      0.163155
     59 H27        -3.2820    2.1420    1.9710 h1        1 MOL      0.163155
     60 N6         -5.7820    2.3970    3.0740 n         1 MOL     -0.435737
     61 C19        -5.8520    3.4870    2.1660 c3        1 MOL     -0.028389
     62 C20        -6.7290    3.1030    0.8850 c         1 MOL      0.439570
     63 O10        -7.7860    2.4590    0.8740 o         1 MOL     -0.455979
     64 C21        -6.4900    4.7180    2.8690 c3        1 MOL     -0.060246
     65 C22        -7.7080    4.4820    3.6780 c         1 MOL      0.739720
     66 O11        -8.7500    5.0800    3.2390 o         1 MOL     -0.676823
     67 O12        -7.6890    3.8950    4.7230 o         1 MOL     -0.676823
     68 H28        -6.4290    2.4020    3.8460 hn        1 MOL      0.315947
     69 H29        -4.8840    3.7750    1.7550 h1        1 MOL      0.030898
     70 H30        -6.6330    5.5310    2.1630 hc        1 MOL     -0.002136
     71 H31        -5.7000    5.1000    3.5160 hc        1 MOL     -0.002136
     72 N7         -6.2470    3.5660   -0.2970 n         1 MOL     -0.261847
     73 C23        -6.9130    3.4970   -1.5440 c3        1 MOL     -0.146057
     74 C24        -6.6940    2.1980   -2.3130 c         1 MOL      0.436156
     75 O13        -7.2120    2.0180   -3.4650 o         1 MOL     -0.545230
     76 H32        -5.3140    3.9450   -0.3210 hn        1 MOL      0.199235
     77 H33        -6.6680    4.3490   -2.1860 h1        1 MOL      0.122285
     78 H34        -7.9860    3.6360   -1.3860 h1        1 MOL      0.122285
     79 N8         -5.7120    1.3510   -1.8660 n         1 MOL     -0.205386
     80 C25        -5.3450    0.0840   -2.5030 c3        1 MOL      0.060328
     81 C26        -5.4630   -1.0430   -1.4580 c         1 MOL      0.447325
     82 O14        -5.2160   -0.8180   -0.2740 o         1 MOL     -0.485017
     83 C27        -3.9020    0.1380   -3.0610 c3        1 MOL      0.287420
     84 C28        -3.6030    1.3800   -3.9530 c3        1 MOL     -0.376624
     85 O15        -3.5960   -1.0440   -3.8150 oh        1 MOL     -0.596735
     86 H35        -5.2390    1.7370   -1.0600 hn        1 MOL      0.102659
     87 H36        -5.9740   -0.1070   -3.3800 h1        1 MOL      0.091429
     88 H37        -3.1990    0.1680   -2.2280 h1        1 MOL      0.051112
     89 H38        -2.7120   -0.8470   -4.1400 ho        1 MOL      0.397356
     90 H39        -3.8900    2.3050   -3.4710 hc        1 MOL      0.101066
     91 H40        -2.6040    1.3450   -4.3860 hc        1 MOL      0.101066
     92 H41        -4.2620    1.3150   -4.8160 hc        1 MOL      0.101066
     93 N9         -5.7700   -2.2950   -1.8590 n         1 MOL     -0.481227
     94 C29        -5.9730   -3.4070   -0.9660 c3        1 MOL     -0.000791
     95 C30        -4.6250   -4.0690   -0.5520 c         1 MOL      0.324075
     96 O16        -4.6190   -4.8640    0.3920 o         1 MOL     -0.508388
     97 C31        -6.8780   -4.4390   -1.6200 c3        1 MOL      0.288904
     98 C32        -7.5390   -5.4500   -0.7010 c3        1 MOL      0.011615
     99 C33        -6.2860   -5.1010   -2.8760 c3        1 MOL     -0.361501
    100 C34        -8.6940   -4.8190    0.1200 c3        1 MOL     -0.269227
    101 H42        -6.0430   -2.3260   -2.8300 hn        1 MOL      0.306336
    102 H43        -6.4030   -3.1490    0.0010 h1        1 MOL      0.142950
    103 H44        -7.7510   -3.8750   -1.9710 hc        1 MOL     -0.036114
    104 H45        -6.7480   -5.9060   -0.1000 hc        1 MOL      0.013354
    105 H46        -8.0730   -6.2290   -1.2340 hc        1 MOL      0.013354
    106 H47        -6.3200   -4.3830   -3.6950 hc        1 MOL      0.076936
    107 H48        -5.2750   -5.4590   -2.6830 hc        1 MOL      0.076936
    108 H49        -6.8330   -6.0270   -3.0210 hc        1 MOL      0.076936
    109 H50        -8.3230   -3.9040    0.5700 hc        1 MOL      0.067743
    110 H51        -9.5640   -4.6680   -0.5330 hc        1 MOL      0.067743
    111 H52        -8.9010   -5.5480    0.9130 hc        1 MOL      0.067743
    112 N10        -3.5200   -3.7200   -1.2640 n         1 MOL     -0.072000
    113 C35        -2.2260   -4.3160   -1.1750 c3        1 MOL      0.049850
    114 C36        -1.0890   -3.3080   -0.9980 c         1 MOL      0.334048
    115 O17        -1.1160   -2.2850   -1.6930 o         1 MOL     -0.419822
    116 C37        -1.8690   -5.3400   -2.1920 c3        1 MOL      0.352830
    117 C38        -1.6050   -4.8050   -3.5980 c3        1 MOL     -0.342393
    118 O18        -2.9320   -6.1970   -2.4400 oh        1 MOL     -0.574199
    119 H53        -3.6970   -2.9280   -1.8620 hn        1 MOL      0.114662
    120 H54        -2.2140   -4.9240   -0.2740 h1        1 MOL     -0.031290
    121 H55        -1.0290   -5.9790   -1.9300 h1        1 MOL      0.004096
    122 H56        -3.0620   -6.6740   -1.6130 ho        1 MOL      0.354575
    123 H57        -1.4190   -5.6740   -4.2360 hc        1 MOL      0.096880
    124 H58        -2.4960   -4.2490   -3.8780 hc        1 MOL      0.096880
    125 H59        -0.7730   -4.0960   -3.5960 hc        1 MOL      0.096880
    126 N11        -0.0830   -3.7890   -0.2250 n         1 MOL     -0.466167
    127 C39         1.1970   -3.0990   -0.0490 c3        1 MOL     -0.017171
    128 C40         2.0090   -2.8430   -1.3190 c         1 MOL      0.429482
    129 O19         1.7030   -3.4580   -2.3600 o         1 MOL     -0.522828
    130 C41         2.1290   -3.9550    0.8680 c3        1 MOL      0.384837
    131 C42         2.6150   -5.2750    0.2220 c3        1 MOL     -0.311199
    132 O20         1.5360   -4.3240    2.0860 oh        1 MOL     -0.734840
    133 H60        -0.2390   -4.6740    0.2540 hn        1 MOL      0.311320
    134 H61         0.9980   -2.1570    0.4490 h1        1 MOL      0.279617
    135 H62         2.9140   -3.2540    1.1620 h1        1 MOL     -0.037809
    136 H63         2.2590   -4.3930    2.7100 ho        1 MOL      0.433557
    137 H64         3.0750   -5.8990    0.9850 hc        1 MOL      0.083854
    138 H65         1.7350   -5.8280   -0.1280 hc        1 MOL      0.083854
    139 H66         3.3180   -4.9940   -0.5610 hc        1 MOL      0.083854
    140 N12         2.9350   -1.8980   -1.2080 n         1 MOL     -0.252724
    141 C43         3.8880   -1.5120   -2.3260 c3        1 MOL     -0.078905
    142 C44         4.4600   -0.1080   -2.2080 c         1 MOL      0.595375
    143 O21         4.7590    0.4370   -3.2340 o         1 MOL     -0.616852
    144 C45         4.9840   -2.5720   -2.2570 c3        1 MOL     -0.269290
    145 C46         6.1970   -2.4010   -3.1430 c3        1 MOL      0.141351
    146 C47         7.2280   -3.5590   -3.0260 c3        1 MOL      0.061771
    147 C48         8.5050   -3.0970   -3.7450 c3        1 MOL      0.026246
    148 N13         9.6120   -4.0270   -3.4940 n4        1 MOL     -0.196676
    149 H67         3.0000   -1.3550   -0.3520 hn        1 MOL     -0.003250
    150 H68         3.3110   -1.5250   -3.2510 h1        1 MOL      0.142242
    151 H69         4.6000   -3.5440   -2.5560 hc        1 MOL      0.105094
    152 H70         5.3650   -2.6260   -1.2430 hc        1 MOL      0.105094
    153 H71         6.6630   -1.4840   -2.7910 hc        1 MOL     -0.014074
    154 H72         5.9420   -2.2820   -4.1940 hc        1 MOL     -0.014074
    155 H73         6.8390   -4.4580   -3.5040 hc        1 MOL     -0.001649
    156 H74         7.5280   -3.7550   -1.9960 hc        1 MOL     -0.001649
    157 H75         8.7930   -2.1230   -3.3310 hx        1 MOL      0.059244
    158 H76         8.3100   -3.0970   -4.8140 hx        1 MOL      0.059244
    159 H77         9.9270   -3.9280   -2.5390 hn        1 MOL      0.258673
    160 H78         9.2350   -4.9620   -3.6040 hn        1 MOL      0.258673
    161 H79        10.4290   -3.9080   -4.0690 hn        1 MOL      0.258673
    162 N14         4.4330    0.5340   -1.0730 n         1 MOL      0.027706
    163 C49         4.9310    1.8990   -0.8600 c3        1 MOL     -0.533531
    164 C50         6.4950    1.8600   -0.6020 c         1 MOL      0.466140
    165 O22         6.9100    0.9890    0.1820 o         1 MOL     -0.457449
    166 C51         4.0810    2.5660    0.2660 c3        1 MOL      0.585742
    167 C52         4.4150    4.0720    0.4590 c3        1 MOL     -0.783653
    168 C53         4.4210    4.8720   -0.8920 c         1 MOL      0.626347
    169 O23         5.5100    5.1590   -1.4160 o         1 MOL     -0.647317
    170 O24         3.3470    5.2560   -1.3920 o         1 MOL     -0.647317
    171 H80         4.0110    0.0500   -0.2890 hn        1 MOL      0.019651
    172 H81         4.7670    2.5030   -1.7510 h1        1 MOL      0.251030
    173 H82         4.2560    2.0440    1.2060 hc        1 MOL     -0.107003
    174 H83         3.0370    2.3820   -0.0070 hc        1 MOL     -0.107003
    175 H84         5.3870    4.1200    0.9530 hc        1 MOL      0.238011
    176 H85         3.6760    4.4600    1.1600 hc        1 MOL      0.238011
    177 N15         7.2950    2.8290   -1.1450 n         1 MOL     -0.340709
    178 C54         8.7500    3.0070   -0.8930 c3        1 MOL      0.048583
    179 H86         9.3160    2.5880   -1.7250 h1        1 MOL      0.034833
    180 H87         8.9770    4.0690   -0.7980 h1        1 MOL      0.034833
    181 H88         9.0260    2.4920    0.0280 h1        1 MOL      0.034833
    182 H89         6.9300    3.4910   -1.8240 hn        1 MOL      0.312677
    183 Ca1         0.8680    5.0730   -2.2570 Ca        1 MOL      1.694267
    184 O25         2.1570    4.0360   -4.2910 oh        1 MOL     -0.877738
    185 H90         2.2230    3.0750   -4.2660 ho        1 MOL      0.432576
    186 H91         2.2170    4.2490   -5.2200 ho        1 MOL      0.432576
    187 O26        -0.9050    4.5970   -4.3640 oh        1 MOL     -0.877738
    188 H92        -1.8430    4.7520   -4.3400 ho        1 MOL      0.432576
    189 H93        -0.6670    4.6440   -5.2860 ho        1 MOL      0.432576
    190 O27         1.8600    7.3660   -0.9410 oh        1 MOL     -0.877738
    191 H94         2.3260    8.1650   -0.7080 ho        1 MOL      0.432576
    192 H95         2.5670    6.7170   -1.0670 ho        1 MOL      0.432576
    193 O28         1.8680    6.9430   -3.8530 oh        1 MOL     -0.877738
    194 H96         1.2680    7.4790   -4.3680 ho        1 MOL      0.432576
    195 H97         2.4400    7.5800   -3.4180 ho        1 MOL      0.432576
@<TRIPOS>BOND
     1    1    2 1   
     2    1    4 1   
     3    1    5 1   
     4    1    6 1   
     5    2    3 2   
     6    2    7 1   
     7    7    8 1   
     8    7   15 1   
     9    8    9 1   
    10    8   11 1   
    11    8   16 1   
    12    9   10 2   
    13    9   19 1   
    14   11   12 1   
    15   11   17 1   
    16   11   18 1   
    17   12   13 1   
    18   12   14 1   
    19   19   20 1   
    20   19   28 1   
    21   20   21 1   
    22   20   23 1   
    23   20   29 1   
    24   21   22 2   
    25   21   41 1   
    26   23   24 1   
    27   23   30 1   
    28   23   31 1   
    29   24   25 1   
    30   24   32 1   
    31   24   33 1   
    32   25   26 1   
    33   25   34 1   
    34   25   35 1   
    35   26   27 1   
    36   26   36 1   
    37   26   37 1   
    38   27   38 1   
    39   27   39 1   
    40   27   40 1   
    41   41   42 1   
    42   41   49 1   
    43   42   43 1   
    44   42   45 1   
    45   42   50 1   
    46   43   44 2   
    47   43   53 1   
    48   45   46 1   
    49   45   51 1   
    50   45   52 1   
    51   46   47 1   
    52   46   48 1   
    53   53   54 1   
    54   53   57 1   
    55   54   55 1   
    56   54   58 1   
    57   54   59 1   
    58   55   56 2   
    59   55   60 1   
    60   60   61 1   
    61   60   68 1   
    62   61   62 1   
    63   61   64 1   
    64   61   69 1   
    65   62   63 2   
    66   62   72 1   
    67   64   65 1   
    68   64   70 1   
    69   64   71 1   
    70   65   66 1   
    71   65   67 1   
    72   72   73 1   
    73   72   76 1   
    74   73   74 1   
    75   73   77 1   
    76   73   78 1   
    77   74   75 2   
    78   74   79 1   
    79   79   80 1   
    80   79   86 1   
    81   80   81 1   
    82   80   83 1   
    83   80   87 1   
    84   81   82 2   
    85   81   93 1   
    86   83   84 1   
    87   83   85 1   
    88   83   88 1   
    89   84   90 1   
    90   84   91 1   
    91   84   92 1   
    92   85   89 1   
    93   93   94 1   
    94   93  101 1   
    95   94   95 1   
    96   94   97 1   
    97   94  102 1   
    98   95   96 2   
    99   95  112 1   
   100   97   98 1   
   101   97   99 1   
   102   97  103 1   
   103   98  100 1   
   104   98  104 1   
   105   98  105 1   
   106   99  106 1   
   107   99  107 1   
   108   99  108 1   
   109  100  109 1   
   110  100  110 1   
   111  100  111 1   
   112  112  113 1   
   113  112  119 1   
   114  113  114 1   
   115  113  116 1   
   116  113  120 1   
   117  114  115 2   
   118  114  126 1   
   119  116  117 1   
   120  116  118 1   
   121  116  121 1   
   122  117  123 1   
   123  117  124 1   
   124  117  125 1   
   125  118  122 1   
   126  126  127 1   
   127  126  133 1   
   128  127  128 1   
   129  127  130 1   
   130  127  134 1   
   131  128  129 2   
   132  128  140 1   
   133  130  131 1   
   134  130  132 1   
   135  130  135 1   
   136  131  137 1   
   137  131  138 1   
   138  131  139 1   
   139  132  136 1   
   140  140  141 1   
   141  140  149 1   
   142  141  142 1   
   143  141  144 1   
   144  141  150 1   
   145  142  143 2   
   146  142  162 1   
   147  144  145 1   
   148  144  151 1   
   149  144  152 1   
   150  145  146 1   
   151  145  153 1   
   152  145  154 1   
   153  146  147 1   
   154  146  155 1   
   155  146  156 1   
   156  147  148 1   
   157  147  157 1   
   158  147  158 1   
   159  148  159 1   
   160  148  160 1   
   161  148  161 1   
   162  162  163 1   
   163  162  171 1   
   164  163  164 1   
   165  163  166 1   
   166  163  172 1   
   167  164  165 2   
   168  164  177 1   
   169  166  167 1   
   170  166  173 1   
   171  166  174 1   
   172  167  168 1   
   173  167  175 1   
   174  167  176 1   
   175  168  169 1   
   176  168  170 1   
   177  177  178 1   
   178  177  182 1   
   179  178  179 1   
   180  178  180 1   
   181  178  181 1   
   182  184  185 1   
   183  184  186 1   
   184  187  188 1   
   185  187  189 1   
   186  190  191 1   
   187  190  192 1   
   188  193  194 1   
   189  193  195 1   
@<TRIPOS>SUBSTRUCTURE
     1 MOL         1 TEMP              0 ****  ****    0 ROOT
