@<TRIPOS>MOLECULE
MOL
  192   187     1     0     0
SMALL
resp


@<TRIPOS>ATOM
      1 C1          9.3250    1.0850    2.0890 c3        1 MOL     -0.558488
      2 C2          8.3190    0.8140    1.0180 c         1 MOL      0.926631
      3 O1          7.1030    0.9980    1.1120 o         1 MOL     -0.743504
      4 H1          8.9000    1.7710    2.8220 hc        1 MOL      0.134777
      5 H2          9.5930    0.1490    2.5820 hc        1 MOL      0.134777
      6 H3         10.2160    1.5320    1.6480 hc        1 MOL      0.134777
      7 N1          8.7300    0.3670   -0.1680 n         1 MOL     -0.614581
      8 C3          7.8230    0.1260   -1.3220 c3        1 MOL      0.128220
      9 C4          7.2710   -1.3060   -1.3370 c         1 MOL      0.401596
     10 O2          7.6160   -2.1420   -2.1580 o         1 MOL     -0.459489
     11 C5          8.5430    0.4870   -2.6220 c3        1 MOL     -0.126383
     12 C6          9.9540   -0.0160   -2.9630 c         1 MOL      0.676742
     13 O3         10.7610   -0.2010   -2.0220 o         1 MOL     -0.643760
     14 O4         10.3080   -0.1620   -4.1710 o         1 MOL     -0.643760
     15 H4          9.7200    0.3110   -0.3630 hn        1 MOL      0.240236
     16 H5          6.9700    0.8080   -1.3470 h1        1 MOL      0.095045
     17 H6          8.6680    1.5710   -2.6410 hc        1 MOL      0.034949
     18 H7          7.8550    0.2930   -3.4490 hc        1 MOL      0.034949
     19 N2          6.4640   -1.7300   -0.3080 n         1 MOL     -0.162578
     20 C7          6.0580   -3.1700   -0.0310 c3        1 MOL      0.020588
     21 C8          4.6090   -3.5120   -0.2890 c         1 MOL      0.558380
     22 O5          4.3570   -4.6510   -0.7920 o         1 MOL     -0.548223
     23 C9          6.4930   -3.6420    1.3980 c3        1 MOL      0.190709
     24 C10         7.9210   -3.2420    1.7960 c3        1 MOL     -0.317286
     25 C11         8.4600   -4.0360    3.0280 c3        1 MOL     -0.193839
     26 C12         9.9570   -3.6280    3.2390 c3        1 MOL      0.211200
     27 N3         10.5110   -4.3350    4.4190 n4        1 MOL     -0.395888
     28 H8          6.4390   -1.0530    0.4460 hn        1 MOL      0.132064
     29 H9          6.6110   -3.7250   -0.7960 h1        1 MOL      0.058413
     30 H10         6.1990   -4.6830    1.4990 hc        1 MOL     -0.026019
     31 H11         5.7660   -3.1580    2.0510 hc        1 MOL     -0.026019
     32 H12         7.9480   -2.1830    2.0520 hc        1 MOL      0.111257
     33 H13         8.6270   -3.5170    1.0100 hc        1 MOL      0.111257
     34 H14         8.5750   -5.0940    2.8140 hc        1 MOL      0.088363
     35 H15         7.9130   -3.9010    3.9560 hc        1 MOL      0.088363
     36 H16         9.9850   -2.5410    3.3020 hx        1 MOL      0.048467
     37 H17        10.5870   -3.8750    2.3770 hx        1 MOL      0.048467
     38 H18         9.7650   -4.2630    5.0890 hn        1 MOL      0.292309
     39 H19        10.7520   -5.2940    4.2470 hn        1 MOL      0.292309
     40 H20        11.3110   -3.7770    4.6980 hn        1 MOL      0.292309
     41 N4          3.6570   -2.6090    0.0450 n         1 MOL     -0.489126
     42 C13         3.7800   -1.4020    0.8800 c3        1 MOL      0.070103
     43 C14         3.7490   -0.1520    0.0510 c         1 MOL      0.106952
     44 O6          3.6490   -0.2010   -1.2140 o         1 MOL     -0.425438
     45 C15         2.6230   -1.4320    1.8830 c3        1 MOL     -0.356784
     46 C16         1.2570   -1.7000    1.1630 c         1 MOL      0.828976
     47 O7          0.6970   -0.6850    0.6580 o         1 MOL     -0.699403
     48 O8          0.8380   -2.8440    1.1570 o         1 MOL     -0.699403
     49 H21         2.7210   -2.8050   -0.2800 hn        1 MOL      0.354997
     50 H22         4.7600   -1.4550    1.3580 h1        1 MOL      0.134312
     51 H23         2.5730   -0.4730    2.4090 hc        1 MOL      0.073529
     52 H24         2.7400   -2.2070    2.6350 hc        1 MOL      0.073529
     53 N5          3.9000    1.0020    0.6550 n         1 MOL     -0.125188
     54 C17         3.8850    2.2940   -0.0410 c3        1 MOL     -0.127657
     55 C18         2.6480    2.7280   -0.8300 c         1 MOL      0.230809
     56 O9          1.5810    2.2050   -0.6180 o         1 MOL     -0.186228
     57 H25         3.9910    1.0120    1.6560 hn        1 MOL      0.254386
     58 H26         4.7080    2.2690   -0.7590 h1        1 MOL      0.108044
     59 H27         3.9890    3.1120    0.6810 h1        1 MOL      0.108044
     60 N6          2.7980    3.6960   -1.7410 n         1 MOL     -0.261225
     61 C19         1.7290    4.4180   -2.4180 c3        1 MOL      0.069473
     62 C20         2.0890    5.9190   -2.5130 c         1 MOL      0.604055
     63 O10         3.2300    6.2860   -2.5300 o         1 MOL     -0.543292
     64 C21         1.4410    3.8460   -3.8100 c3        1 MOL     -0.357985
     65 C22         0.7220    2.4710   -3.7760 c         1 MOL      0.663953
     66 O11        -0.2800    2.3680   -3.0620 o         1 MOL     -0.641670
     67 O12         1.1900    1.5590   -4.4820 o         1 MOL     -0.641670
     68 H28         3.7030    4.1270   -1.6600 hn        1 MOL      0.246638
     69 H29         0.7890    4.3810   -1.8740 h1        1 MOL     -0.008491
     70 H30         2.3210    3.8660   -4.4480 hc        1 MOL      0.104801
     71 H31         0.7510    4.5140   -4.3100 hc        1 MOL      0.104801
     72 N7          1.1170    6.8590   -2.3410 n         1 MOL     -0.534327
     73 C23        -0.3570    6.6710   -2.2280 c3        1 MOL     -0.001977
     74 C24        -0.9140    6.1110   -0.8510 c         1 MOL      0.552972
     75 O13        -0.2950    6.2990    0.1870 o         1 MOL     -0.496926
     76 H32         1.4420    7.8160   -2.3690 hn        1 MOL      0.320652
     77 H33        -0.6580    6.0940   -3.1020 h1        1 MOL      0.074170
     78 H34        -0.8540    7.6020   -2.4780 h1        1 MOL      0.074170
     79 N8         -2.0730    5.4820   -0.8590 n         1 MOL     -0.565503
     80 C25        -2.6610    4.9560    0.3350 c3        1 MOL      0.109048
     81 C26        -2.0170    3.6670    0.9050 c         1 MOL      0.595137
     82 O14        -1.4230    2.9800    0.0980 o         1 MOL     -0.608833
     83 C27        -4.1720    4.7020    0.2440 c3        1 MOL      0.311322
     84 C28        -4.9530    4.4300    1.5060 c3        1 MOL     -0.445312
     85 O15        -4.4570    3.7650   -0.7310 oh        1 MOL     -0.599399
     86 H35        -2.4370    5.2590   -1.7810 hn        1 MOL      0.314939
     87 H36        -2.5980    5.7520    1.0760 h1        1 MOL      0.054823
     88 H37        -4.5620    5.6130   -0.2270 h1        1 MOL      0.018495
     89 H38        -5.4060    3.6660   -0.7790 ho        1 MOL      0.396826
     90 H39        -5.9300    3.9640    1.3200 hc        1 MOL      0.114442
     91 H40        -4.4540    3.7790    2.2210 hc        1 MOL      0.114442
     92 H41        -5.2400    5.3130    2.0760 hc        1 MOL      0.114442
     93 N9         -1.9480    3.4170    2.2270 n         1 MOL     -0.499967
     94 C29        -1.1730    2.3730    2.9050 c3        1 MOL      0.032949
     95 C30        -1.6790    0.9700    2.5250 c         1 MOL      0.590076
     96 O16        -1.9330    0.6310    1.3800 o         1 MOL     -0.457885
     97 C31         0.3670    2.5380    2.7490 c3        1 MOL      0.602098
     98 C32         1.0710    3.9030    2.9140 c3        1 MOL     -0.415312
     99 C33         0.9790    1.4440    3.6980 c3        1 MOL     -0.359912
    100 C34         1.0630    4.5730    4.3180 c3        1 MOL     -0.327559
    101 H42        -2.3830    4.0310    2.8960 hn        1 MOL      0.284133
    102 H43        -1.3220    2.5580    3.9730 h1        1 MOL      0.007581
    103 H44         0.6310    2.1860    1.7530 hc        1 MOL     -0.280681
    104 H45         0.5440    4.5500    2.2290 hc        1 MOL      0.168088
    105 H46         2.1090    3.7960    2.5900 hc        1 MOL      0.168088
    106 H47         0.5700    1.6020    4.6930 hc        1 MOL      0.069416
    107 H48         0.7590    0.4260    3.4000 hc        1 MOL      0.069416
    108 H49         2.0550    1.6130    3.7760 hc        1 MOL      0.069416
    109 H50         1.5070    3.8170    4.9660 hc        1 MOL      0.095626
    110 H51         1.8160    5.3260    4.5150 hc        1 MOL      0.095626
    111 H52         0.0920    4.8770    4.6980 hc        1 MOL      0.095626
    112 N10        -1.9070    0.1550    3.5500 n         1 MOL     -0.643836
    113 C35        -2.3040   -1.2810    3.4900 c3        1 MOL     -0.005247
    114 C36        -3.7690   -1.4640    3.0380 c         1 MOL      0.492383
    115 O17        -4.1880   -2.5980    2.9330 o         1 MOL     -0.548462
    116 C37        -2.0820   -2.1060    4.7750 c3        1 MOL      0.465668
    117 C38        -2.9590   -1.7530    5.9910 c3        1 MOL     -0.349916
    118 O18        -0.8350   -1.8220    5.3160 oh        1 MOL     -0.622301
    119 H53        -1.6130    0.4510    4.4710 hn        1 MOL      0.347150
    120 H54        -1.6840   -1.6710    2.6800 h1        1 MOL      0.036817
    121 H55        -2.1550   -3.1740    4.5600 h1        1 MOL      0.017555
    122 H56        -0.3010   -2.6090    5.4170 ho        1 MOL      0.399260
    123 H57        -2.7930   -0.6910    6.1780 hc        1 MOL      0.082753
    124 H58        -4.0200   -1.9560    5.8390 hc        1 MOL      0.082753
    125 H59        -2.6510   -2.2710    6.9030 hc        1 MOL      0.082753
    126 N11        -4.4990   -0.3980    2.7210 n         1 MOL     -0.308855
    127 C39        -5.9110   -0.4570    2.3440 c3        1 MOL     -0.126252
    128 C40        -5.9550   -0.8300    0.9010 c         1 MOL      0.766221
    129 O19        -5.4010   -0.1880    0.0430 o         1 MOL     -0.578748
    130 C41        -6.5950    0.8770    2.6240 c3        1 MOL      0.333016
    131 C42        -8.0670    0.9860    2.2530 c3        1 MOL     -0.462415
    132 O20        -6.5370    1.3190    3.9830 oh        1 MOL     -0.557105
    133 H60        -4.0650    0.4990    2.5180 hn        1 MOL      0.203537
    134 H61        -6.4390   -1.2120    2.9360 h1        1 MOL      0.098142
    135 H62        -6.1030    1.5090    1.8820 h1        1 MOL     -0.010569
    136 H63        -5.6670    1.5430    4.3130 ho        1 MOL      0.358608
    137 H64        -8.3850    2.0250    2.3310 hc        1 MOL      0.132379
    138 H65        -8.1960    0.6990    1.2080 hc        1 MOL      0.132379
    139 H66        -8.5830    0.3430    2.9690 hc        1 MOL      0.132379
    140 N12        -6.7040   -1.9040    0.5620 n         1 MOL     -0.630781
    141 C43        -6.8100   -2.5670   -0.7480 c3        1 MOL      0.289186
    142 C44        -5.5320   -2.5900   -1.5870 c         1 MOL      0.485477
    143 O21        -5.5120   -2.0150   -2.6650 o         1 MOL     -0.523001
    144 C45        -8.0210   -2.0780   -1.4830 c3        1 MOL     -0.338256
    145 C46        -9.3390   -1.9640   -0.7070 c3        1 MOL      0.162961
    146 C47       -10.4640   -1.4490   -1.6950 c3        1 MOL     -0.149323
    147 C48       -11.6020   -0.7010   -0.9750 c3        1 MOL      0.163962
    148 N13       -12.5230   -1.5000   -0.1550 n4        1 MOL     -0.209323
    149 H67        -7.2690   -2.3610    1.2700 hn        1 MOL      0.299809
    150 H68        -6.9790   -3.6130   -0.4930 h1        1 MOL      0.030315
    151 H69        -8.1850   -2.6150   -2.4100 hc        1 MOL      0.112712
    152 H70        -7.8660   -1.0450   -1.8100 hc        1 MOL      0.112712
    153 H71        -9.3030   -1.3350    0.1910 hc        1 MOL     -0.040225
    154 H72        -9.5540   -2.9320   -0.2620 hc        1 MOL     -0.040225
    155 H73       -10.9760   -2.1990   -2.3000 hc        1 MOL      0.079284
    156 H74       -10.0220   -0.6650   -2.3180 hc        1 MOL      0.079284
    157 H75       -12.2250   -0.1810   -1.7070 hx        1 MOL      0.024676
    158 H76       -11.1670    0.0760   -0.3440 hx        1 MOL      0.024676
    159 H77       -12.9170   -2.2940   -0.6410 hn        1 MOL      0.193645
    160 H78       -12.0480   -1.8460    0.6590 hn        1 MOL      0.193645
    161 H79       -13.3070   -0.9810    0.2070 hn        1 MOL      0.193645
    162 N14        -4.4640   -3.3860   -1.2450 n         1 MOL     -0.557412
    163 C49        -3.1060   -3.2130   -1.9220 c3        1 MOL      0.449556
    164 C50        -1.9770   -2.9610   -0.9170 c         1 MOL      0.168515
    165 O22        -1.3710   -1.9140   -0.9890 o         1 MOL     -0.399403
    166 C51        -2.9390   -4.4810   -2.8030 c3        1 MOL      0.013250
    167 C52        -3.8290   -4.4270   -4.0830 c3        1 MOL     -0.186469
    168 C53        -3.4330   -5.4340   -5.1340 c         1 MOL      0.679961
    169 O23        -2.5630   -5.1840   -5.9800 o         1 MOL     -0.613773
    170 O24        -4.0290   -6.5290   -5.0490 o         1 MOL     -0.613773
    171 H80        -4.5140   -4.0850   -0.5140 hn        1 MOL      0.290504
    172 H81        -3.0560   -2.3640   -2.5940 h1        1 MOL      0.025806
    173 H82        -3.2420   -5.3640   -2.2380 hc        1 MOL      0.017353
    174 H83        -1.9160   -4.7050   -3.1110 hc        1 MOL      0.017353
    175 H84        -3.7590   -3.4100   -4.4850 hc        1 MOL      0.020748
    176 H85        -4.8600   -4.5560   -3.7670 hc        1 MOL      0.020748
    177 N15        -1.6210   -3.8010    0.1160 n         1 MOL     -0.309978
    178 C54        -1.9580   -5.2480    0.3430 c3        1 MOL     -0.069329
    179 H86        -1.1750   -5.8740   -0.0840 h1        1 MOL      0.047108
    180 H87        -2.0330   -5.4410    1.4130 h1        1 MOL      0.047108
    181 H88        -2.9090   -5.4790   -0.1360 h1        1 MOL      0.047108
    182 H89        -0.8410   -3.4090    0.6260 hn        1 MOL      0.368367
    183 Ca1        -0.7070    0.7960   -1.0160 Ca        1 MOL      1.628730
    184 O25        -1.7510   -0.1770   -3.4220 oh        1 MOL     -0.832165
    185 H90        -1.4430   -0.3200   -4.3150 ho        1 MOL      0.402986
    186 H91        -2.6340    0.1790   -3.5290 ho        1 MOL      0.402986
    187 O26        -3.3790    0.8850   -1.2690 oh        1 MOL     -0.832165
    188 H92        -3.9400    0.2340   -0.8450 ho        1 MOL      0.402986
    189 H93        -3.9400    1.6460   -1.3890 ho        1 MOL      0.402986
    190 O27         1.2360   -0.4360   -2.3540 oh        1 MOL     -0.832165
    191 H94         1.4290    0.0690   -3.1450 ho        1 MOL      0.402986
    192 H95         2.0180   -0.3420   -1.8100 ho        1 MOL      0.402986
@<TRIPOS>BOND
     1    1    2 1   
     2    1    4 1   
     3    1    5 1   
     4    1    6 1   
     5    2    3 2   
     6    2    7 1   
     7    7    8 1   
     8    7   15 1   
     9    8    9 1   
    10    8   11 1   
    11    8   16 1   
    12    9   10 2   
    13    9   19 1   
    14   11   12 1   
    15   11   17 1   
    16   11   18 1   
    17   12   13 1   
    18   12   14 1   
    19   19   20 1   
    20   19   28 1   
    21   20   21 1   
    22   20   23 1   
    23   20   29 1   
    24   21   22 2   
    25   21   41 1   
    26   23   24 1   
    27   23   30 1   
    28   23   31 1   
    29   24   25 1   
    30   24   32 1   
    31   24   33 1   
    32   25   26 1   
    33   25   34 1   
    34   25   35 1   
    35   26   27 1   
    36   26   36 1   
    37   26   37 1   
    38   27   38 1   
    39   27   39 1   
    40   27   40 1   
    41   41   42 1   
    42   41   49 1   
    43   42   43 1   
    44   42   45 1   
    45   42   50 1   
    46   43   44 2   
    47   43   53 1   
    48   45   46 1   
    49   45   51 1   
    50   45   52 1   
    51   46   47 1   
    52   46   48 1   
    53   53   54 1   
    54   53   57 1   
    55   54   55 1   
    56   54   58 1   
    57   54   59 1   
    58   55   56 2   
    59   55   60 1   
    60   60   61 1   
    61   60   68 1   
    62   61   62 1   
    63   61   64 1   
    64   61   69 1   
    65   62   63 2   
    66   62   72 1   
    67   64   65 1   
    68   64   70 1   
    69   64   71 1   
    70   65   66 1   
    71   65   67 1   
    72   72   73 1   
    73   72   76 1   
    74   73   74 1   
    75   73   77 1   
    76   73   78 1   
    77   74   75 2   
    78   74   79 1   
    79   79   80 1   
    80   79   86 1   
    81   80   81 1   
    82   80   83 1   
    83   80   87 1   
    84   81   82 2   
    85   81   93 1   
    86   83   84 1   
    87   83   85 1   
    88   83   88 1   
    89   84   90 1   
    90   84   91 1   
    91   84   92 1   
    92   85   89 1   
    93   93   94 1   
    94   93  101 1   
    95   94   95 1   
    96   94   97 1   
    97   94  102 1   
    98   95   96 2   
    99   95  112 1   
   100   97   98 1   
   101   97   99 1   
   102   97  103 1   
   103   98  100 1   
   104   98  104 1   
   105   98  105 1   
   106   99  106 1   
   107   99  107 1   
   108   99  108 1   
   109  100  109 1   
   110  100  110 1   
   111  100  111 1   
   112  112  113 1   
   113  112  119 1   
   114  113  114 1   
   115  113  116 1   
   116  113  120 1   
   117  114  115 2   
   118  114  126 1   
   119  116  117 1   
   120  116  118 1   
   121  116  121 1   
   122  117  123 1   
   123  117  124 1   
   124  117  125 1   
   125  118  122 1   
   126  126  127 1   
   127  126  133 1   
   128  127  128 1   
   129  127  130 1   
   130  127  134 1   
   131  128  129 2   
   132  128  140 1   
   133  130  131 1   
   134  130  132 1   
   135  130  135 1   
   136  131  137 1   
   137  131  138 1   
   138  131  139 1   
   139  132  136 1   
   140  140  141 1   
   141  140  149 1   
   142  141  142 1   
   143  141  144 1   
   144  141  150 1   
   145  142  143 2   
   146  142  162 1   
   147  144  145 1   
   148  144  151 1   
   149  144  152 1   
   150  145  146 1   
   151  145  153 1   
   152  145  154 1   
   153  146  147 1   
   154  146  155 1   
   155  146  156 1   
   156  147  148 1   
   157  147  157 1   
   158  147  158 1   
   159  148  159 1   
   160  148  160 1   
   161  148  161 1   
   162  162  163 1   
   163  162  171 1   
   164  163  164 1   
   165  163  166 1   
   166  163  172 1   
   167  164  165 2   
   168  164  177 1   
   169  166  167 1   
   170  166  173 1   
   171  166  174 1   
   172  167  168 1   
   173  167  175 1   
   174  167  176 1   
   175  168  169 1   
   176  168  170 1   
   177  177  178 1   
   178  177  182 1   
   179  178  179 1   
   180  178  180 1   
   181  178  181 1   
   182  184  185 1   
   183  184  186 1   
   184  187  188 1   
   185  187  189 1   
   186  190  191 1   
   187  190  192 1   
@<TRIPOS>SUBSTRUCTURE
     1 MOL         1 TEMP              0 ****  ****    0 ROOT
