@<TRIPOS>MOLECULE
MOL
  178   175     1     0     0
SMALL
resp


@<TRIPOS>ATOM
      1 C1          2.1480   -1.1390    4.9750 c3        1 MOL     -0.284667
      2 C2          3.2840   -1.0790    3.9710 c         1 MOL      0.624536
      3 O1          3.4080   -0.2180    3.1040 o         1 MOL     -0.557955
      4 H1          1.4350   -1.9060    4.6710 hc        1 MOL      0.066177
      5 H2          2.5450   -1.3820    5.9610 hc        1 MOL      0.066177
      6 H3          1.6450   -0.1730    5.0140 hc        1 MOL      0.066177
      7 N1          4.3040   -1.8990    4.2510 n         1 MOL     -0.501400
      8 C3          5.6540   -1.7720    3.7470 c3        1 MOL      0.390846
      9 C4          5.8150   -2.1300    2.3230 c         1 MOL      0.645390
     10 O2          6.6400   -1.6450    1.5230 o         1 MOL     -0.477256
     11 C5          6.5750   -2.5140    4.7040 c3        1 MOL     -0.286523
     12 C6          8.0270   -2.1000    4.4830 c         1 MOL      0.682232
     13 O3          8.9190   -2.9400    4.6500 o         1 MOL     -0.686057
     14 O4          8.3050   -1.0410    3.8900 o         1 MOL     -0.686057
     15 H4          4.0950   -2.6370    4.9140 hn        1 MOL      0.252254
     16 H5          5.9390   -0.7310    3.8290 h1        1 MOL     -0.037964
     17 H6          6.3700   -3.5750    4.5710 hc        1 MOL      0.014035
     18 H7          6.3330   -2.2970    5.7430 hc        1 MOL      0.014035
     19 N2          4.9820   -3.0690    1.9390 n         1 MOL     -0.543763
     20 C7          4.8780   -3.6420    0.5920 c3        1 MOL      0.145351
     21 C8          4.6330   -2.7160   -0.5550 c         1 MOL      0.683189
     22 O5          3.4780   -2.6830   -0.9680 o         1 MOL     -0.681092
     23 C9          5.9480   -4.6400    0.4190 c3        1 MOL     -0.255320
     24 H8          4.2220   -3.2720    2.5710 hn        1 MOL      0.215154
     25 H9          4.0330   -4.3240    0.5340 h1        1 MOL      0.131305
     26 H10         5.9260   -5.4110    1.1970 hc        1 MOL      0.056053
     27 H11         5.7510   -5.1770   -0.5090 hc        1 MOL      0.056053
     28 H12         6.9080   -4.1560    0.2750 hc        1 MOL      0.056053
     29 N3          5.5820   -1.9670   -1.0970 n         1 MOL     -0.498230
     30 C10         5.6150   -1.0650   -2.2390 c3        1 MOL     -0.050663
     31 C11         5.8010    0.4010   -1.8490 c         1 MOL      0.485213
     32 O6          5.8880    1.2170   -2.7430 o         1 MOL     -0.556551
     33 C12         6.6400   -1.5570   -3.2840 c3        1 MOL     -0.214258
     34 C13         7.9810   -1.9400   -2.6020 c         1 MOL      0.734691
     35 O7          8.5810   -2.9720   -2.8800 o         1 MOL     -0.705106
     36 O8          8.4600   -1.0710   -1.8330 o         1 MOL     -0.705106
     37 H13         6.4850   -1.9890   -0.6350 hn        1 MOL      0.309634
     38 H14         4.6820   -1.0300   -2.7970 h1        1 MOL      0.189496
     39 H15         6.7290   -0.8460   -4.1000 hc        1 MOL      0.007747
     40 H16         6.2680   -2.3780   -3.8940 hc        1 MOL      0.007747
     41 N4          5.8410    0.7170   -0.5260 n         1 MOL     -0.067926
     42 C14         5.8270    2.1210   -0.0790 c3        1 MOL     -0.098328
     43 C15         4.8220    3.0340   -0.7560 c         1 MOL      0.567197
     44 O9          5.0060    4.2580   -0.7060 o         1 MOL     -0.580475
     45 H17         5.6890    0.0390    0.2120 hn        1 MOL      0.077512
     46 H18         6.8470    2.4450   -0.2790 h1        1 MOL      0.079298
     47 H19         5.7650    2.1080    1.0010 h1        1 MOL      0.079298
     48 N5          3.6480    2.5390   -1.1370 n         1 MOL     -0.259008
     49 C16         2.7100    3.3530   -1.7910 c3        1 MOL     -0.173375
     50 C17         2.0860    4.4700   -0.9030 c         1 MOL      0.660019
     51 O10         1.7180    4.3100    0.2590 o         1 MOL     -0.514862
     52 C18         1.6140    2.3920   -2.3340 c3        1 MOL     -0.461991
     53 C19         2.1610    1.2940   -3.2640 c         1 MOL      0.789417
     54 N6          2.5650    1.6800   -4.4240 n         1 MOL     -0.750844
     55 O11         2.4020    0.1030   -3.0110 o         1 MOL     -0.689931
     56 H20         3.3860    1.6000   -0.8640 hn        1 MOL      0.245879
     57 H21         3.3170    3.8180   -2.5660 h1        1 MOL      0.104251
     58 H22         0.9020    3.1010   -2.7750 hc        1 MOL      0.163712
     59 H23         1.1950    1.9580   -1.4400 hc        1 MOL      0.163712
     60 H24         2.2680    2.5710   -4.7950 hn        1 MOL      0.355555
     61 H25         3.1160    1.0710   -5.0250 hn        1 MOL      0.355555
     62 N7          2.0170    5.6640   -1.5170 n         1 MOL     -0.395930
     63 C20         1.4450    6.8860   -1.0410 c3        1 MOL     -0.177292
     64 C21        -0.1070    6.9610   -1.2620 c         1 MOL      0.560286
     65 O12        -0.6930    6.3800   -2.1830 o         1 MOL     -0.494602
     66 H26         2.3340    5.8060   -2.4650 hn        1 MOL      0.274864
     67 H27         1.9040    7.7370   -1.5470 h1        1 MOL      0.113681
     68 H28         1.6580    6.9880    0.0190 h1        1 MOL      0.113681
     69 N8         -0.7660    7.7630   -0.3960 n         1 MOL     -0.448525
     70 C22        -2.2370    7.9380   -0.1910 c3        1 MOL     -0.277492
     71 C23        -2.9790    6.6850    0.3270 c         1 MOL      0.542562
     72 O13        -4.0850    6.7350    0.7850 o         1 MOL     -0.571995
     73 C24        -2.4240    9.0810    0.7530 c3        1 MOL      0.497225
     74 C25        -1.9570    8.8500    2.1870 c3        1 MOL     -0.230650
     75 O14        -1.9190   10.2730    0.1990 oh        1 MOL     -0.665488
     76 H29        -0.2690    8.3320    0.2840 hn        1 MOL      0.226151
     77 H30        -2.5920    8.1250   -1.2060 h1        1 MOL      0.168073
     78 H31        -3.5010    9.1950    0.8220 h1        1 MOL      0.026955
     79 H32        -0.9650   10.2890    0.2360 ho        1 MOL      0.395114
     80 H33        -1.0900    8.2130    2.3030 hc        1 MOL      0.055530
     81 H34        -1.7220    9.7790    2.6930 hc        1 MOL      0.055530
     82 H35        -2.8580    8.5110    2.7060 hc        1 MOL      0.055530
     83 N9         -2.2630    5.5960    0.4930 n         1 MOL     -0.240061
     84 C26        -2.7630    4.3370    0.9820 c3        1 MOL      0.084681
     85 C27        -2.3370    3.1780    0.0620 c         1 MOL      0.435607
     86 O15        -1.5050    3.3580   -0.8360 o         1 MOL     -0.429014
     87 C28        -2.2460    4.1350    2.4580 c3        1 MOL     -0.014903
     88 C29        -0.6670    4.0520    2.5040 c3        1 MOL      0.106386
     89 C30        -2.8350    5.0500    3.6440 c3        1 MOL     -0.235072
     90 C31        -0.2430    3.7550    3.9160 c3        1 MOL     -0.326681
     91 H36        -1.4290    5.5450   -0.0770 hn        1 MOL      0.137738
     92 H37        -3.8430    4.2130    0.9360 h1        1 MOL      0.056948
     93 H38        -2.5890    3.1500    2.7670 hc        1 MOL      0.011937
     94 H39        -0.1590    4.9660    2.2170 hc        1 MOL      0.055138
     95 H40        -0.4610    3.2140    1.8530 hc        1 MOL      0.055138
     96 H41        -2.6880    4.6120    4.6380 hc        1 MOL      0.060500
     97 H42        -2.4760    6.0730    3.6040 hc        1 MOL      0.060500
     98 H43        -3.9010    5.0000    3.4230 hc        1 MOL      0.060500
     99 H44         0.7630    3.3430    3.9160 hc        1 MOL      0.080368
    100 H45        -0.2450    4.6830    4.4940 hc        1 MOL      0.080368
    101 H46        -0.9060    3.0420    4.4060 hc        1 MOL      0.080368
    102 N10        -2.8460    1.9450    0.2450 n         1 MOL     -0.550277
    103 C32        -2.4350    0.7360   -0.4440 c3        1 MOL      0.228865
    104 C33        -3.5080   -0.3600   -0.5820 c         1 MOL      0.414542
    105 O16        -3.2440   -1.5690   -0.4590 o         1 MOL     -0.389498
    106 C34        -1.1810    0.1900    0.2310 c3        1 MOL     -0.273013
    107 C35        -0.2470   -0.5810   -0.6960 c         1 MOL      0.576878
    108 O17         0.7360   -1.2310   -0.1690 o         1 MOL     -0.668213
    109 O18        -0.5390   -0.7110   -1.9010 o         1 MOL     -0.668213
    110 H47        -3.5800    1.7990    0.9240 hn        1 MOL      0.290862
    111 H48        -2.1620    1.0660   -1.4490 h1        1 MOL      0.042780
    112 H49        -1.4060   -0.5040    1.0390 hc        1 MOL      0.104649
    113 H50        -0.5560    1.0140    0.5920 hc        1 MOL      0.104649
    114 N11        -4.7730    0.0380   -0.6710 n         1 MOL     -0.420554
    115 C36        -5.8990   -0.8720   -0.9880 c3        1 MOL      0.197166
    116 C37        -6.1370   -1.9450    0.0720 c         1 MOL      0.261019
    117 O19        -5.8060   -1.6930    1.2330 o         1 MOL     -0.486595
    118 C38        -7.1840   -0.0820   -1.0840 c3        1 MOL     -0.196647
    119 C39        -8.4740   -0.8830   -1.1020 ca        1 MOL      0.104702
    120 C40        -9.0240   -1.3370   -2.3360 ca        1 MOL     -0.255903
    121 C41        -9.1790   -1.0510    0.1390 ca        1 MOL     -0.255903
    122 C42       -10.2520   -2.0290   -2.2510 ca        1 MOL     -0.016530
    123 C43       -10.4650   -1.6820    0.1280 ca        1 MOL     -0.016530
    124 C44       -10.9950   -2.1750   -1.0660 ca        1 MOL     -0.217924
    125 H51        -4.9450    1.0270   -0.5660 hn        1 MOL      0.239237
    126 H52        -5.7310   -1.3070   -1.9690 h1        1 MOL      0.061153
    127 H53        -7.1180    0.4460   -2.0280 hc        1 MOL      0.082408
    128 H54        -7.2920    0.6610   -0.2890 hc        1 MOL      0.082408
    129 H55        -8.5360   -1.1870   -3.2850 ha        1 MOL      0.157923
    130 H56        -8.8800   -0.5350    1.0370 ha        1 MOL      0.157923
    131 H57       -10.6850   -2.2990   -3.2070 ha        1 MOL      0.081164
    132 H58       -11.0550   -1.5920    1.0190 ha        1 MOL      0.081164
    133 H59       -11.8980   -2.7580   -1.0220 ha        1 MOL      0.127266
    134 N12        -6.4390   -3.2430   -0.1920 n         1 MOL     -0.012129
    135 C45        -6.5540   -4.3040    0.7880 c3        1 MOL      0.148538
    136 C46        -5.2640   -4.6170    1.5770 c         1 MOL      0.191455
    137 O20        -5.3670   -5.3280    2.6110 o         1 MOL     -0.518519
    138 C47        -7.0930   -5.5650    0.1630 c3        1 MOL     -0.245754
    139 C48        -7.3710   -5.1140   -1.2740 c3        1 MOL      0.067823
    140 C49        -6.4300   -3.9460   -1.5100 c3        1 MOL      0.051199
    141 H60        -7.3080   -3.9610    1.5070 h1        1 MOL      0.053547
    142 H61        -6.3350   -6.3380    0.0600 hc        1 MOL      0.097905
    143 H62        -7.9540   -5.9720    0.6760 hc        1 MOL      0.097905
    144 H63        -7.2170   -5.9170   -2.0040 hc        1 MOL     -0.012385
    145 H64        -8.3740   -4.7790   -1.5020 hc        1 MOL     -0.012385
    146 H65        -5.4220   -4.2830   -1.7150 h1        1 MOL     -0.002568
    147 H66        -6.7520   -3.2580   -2.3030 h1        1 MOL     -0.002568
    148 N13        -4.1050   -4.2040    1.1320 n         1 MOL     -0.026787
    149 C50        -2.8110   -4.2940    1.8950 c3        1 MOL     -0.229674
    150 C51        -2.7590   -3.2940    3.0210 c         1 MOL      0.497239
    151 O21        -2.0370   -3.5270    3.9800 o         1 MOL     -0.544475
    152 C52        -1.6880   -4.1160    0.9540 c3        1 MOL      0.296136
    153 C53        -1.6920   -4.8400   -0.4410 c3        1 MOL     -0.450754
    154 C54        -0.5550   -4.3090   -1.3180 c         1 MOL      0.868986
    155 O22         0.6210   -4.2680   -0.8730 o         1 MOL     -0.798089
    156 O23        -0.8100   -3.8600   -2.4870 o         1 MOL     -0.798089
    157 H67        -4.0870   -3.5030    0.4140 hn        1 MOL      0.097644
    158 H68        -2.7570   -5.2950    2.3250 h1        1 MOL      0.125292
    159 H69        -0.8670   -4.5310    1.5310 hc        1 MOL     -0.006033
    160 H70        -1.4570   -3.0550    0.8990 hc        1 MOL     -0.006033
    161 H71        -2.6620   -4.6370   -0.8850 hc        1 MOL      0.088528
    162 H72        -1.5860   -5.9160   -0.2630 hc        1 MOL      0.088528
    163 N14        -3.6350   -2.2610    3.0320 n         1 MOL     -0.084288
    164 C55        -3.8380   -1.2920    4.0830 c3        1 MOL     -0.321355
    165 H73        -4.3480   -1.7680    4.9220 h1        1 MOL      0.109827
    166 H74        -2.8730   -0.9090    4.4160 h1        1 MOL      0.109827
    167 H75        -4.4470   -0.4700    3.7080 h1        1 MOL      0.109827
    168 H76        -4.2160   -2.0670    2.2420 hn        1 MOL      0.164522
    169 Ca1         1.3890   -2.4360   -2.4810 Ca        1 MOL      1.717527
    170 O24         3.0590   -2.3800   -4.6650 oh        1 MOL     -0.823800
    171 H77         3.3410   -3.1600   -5.1380 ho        1 MOL      0.403362
    172 H78         3.3950   -1.6550   -5.1750 ho        1 MOL      0.403362
    173 O25         0.2710   -1.8740   -4.8200 oh        1 MOL     -0.823800
    174 H79        -0.6320   -1.6290   -4.9780 ho        1 MOL      0.403362
    175 H80         0.6630   -1.9190   -5.6930 ho        1 MOL      0.403362
    176 O26         2.8790   -4.9280   -2.8980 oh        1 MOL     -0.823800
    177 H81         2.7000   -5.8050   -3.2340 ho        1 MOL      0.403362
    178 H82         3.7260   -4.7030   -3.2920 ho        1 MOL      0.403362
@<TRIPOS>BOND
     1    1    2 1   
     2    1    4 1   
     3    1    5 1   
     4    1    6 1   
     5    2    3 2   
     6    2    7 1   
     7    7    8 1   
     8    7   15 1   
     9    8    9 1   
    10    8   11 1   
    11    8   16 1   
    12    9   10 2   
    13    9   19 1   
    14   11   12 1   
    15   11   17 1   
    16   11   18 1   
    17   12   13 1   
    18   12   14 1   
    19   19   20 1   
    20   19   24 1   
    21   20   21 1   
    22   20   23 1   
    23   20   25 1   
    24   21   22 2   
    25   21   29 1   
    26   23   26 1   
    27   23   27 1   
    28   23   28 1   
    29   29   30 1   
    30   29   37 1   
    31   30   31 1   
    32   30   33 1   
    33   30   38 1   
    34   31   32 2   
    35   31   41 1   
    36   33   34 1   
    37   33   39 1   
    38   33   40 1   
    39   34   35 1   
    40   34   36 1   
    41   41   42 1   
    42   41   45 1   
    43   42   43 1   
    44   42   46 1   
    45   42   47 1   
    46   43   44 2   
    47   43   48 1   
    48   48   49 1   
    49   48   56 1   
    50   49   50 1   
    51   49   52 1   
    52   49   57 1   
    53   50   51 2   
    54   50   62 1   
    55   52   53 1   
    56   52   58 1   
    57   52   59 1   
    58   53   54 1   
    59   53   55 2   
    60   54   60 1   
    61   54   61 1   
    62   62   63 1   
    63   62   66 1   
    64   63   64 1   
    65   63   67 1   
    66   63   68 1   
    67   64   65 2   
    68   64   69 1   
    69   69   70 1   
    70   69   76 1   
    71   70   71 1   
    72   70   73 1   
    73   70   77 1   
    74   71   72 2   
    75   71   83 1   
    76   73   74 1   
    77   73   75 1   
    78   73   78 1   
    79   74   80 1   
    80   74   81 1   
    81   74   82 1   
    82   75   79 1   
    83   83   84 1   
    84   83   91 1   
    85   84   85 1   
    86   84   87 1   
    87   84   92 1   
    88   85   86 2   
    89   85  102 1   
    90   87   88 1   
    91   87   89 1   
    92   87   93 1   
    93   88   90 1   
    94   88   94 1   
    95   88   95 1   
    96   89   96 1   
    97   89   97 1   
    98   89   98 1   
    99   90   99 1   
   100   90  100 1   
   101   90  101 1   
   102  102  103 1   
   103  102  110 1   
   104  103  104 1   
   105  103  106 1   
   106  103  111 1   
   107  104  105 2   
   108  104  114 1   
   109  106  107 1   
   110  106  112 1   
   111  106  113 1   
   112  107  108 1   
   113  107  109 1   
   114  114  115 1   
   115  114  125 1   
   116  115  116 1   
   117  115  118 1   
   118  115  126 1   
   119  116  117 2   
   120  116  134 1   
   121  118  119 1   
   122  118  127 1   
   123  118  128 1   
   124  119  120 ar  
   125  119  121 ar  
   126  120  122 ar  
   127  120  129 1   
   128  121  123 ar  
   129  121  130 1   
   130  122  124 ar  
   131  122  131 1   
   132  123  124 ar  
   133  123  132 1   
   134  124  133 1   
   135  134  135 1   
   136  134  140 1   
   137  135  136 1   
   138  135  138 1   
   139  135  141 1   
   140  136  137 2   
   141  136  148 1   
   142  138  139 1   
   143  138  142 1   
   144  138  143 1   
   145  139  140 1   
   146  139  144 1   
   147  139  145 1   
   148  140  146 1   
   149  140  147 1   
   150  148  149 1   
   151  148  157 1   
   152  149  150 1   
   153  149  152 1   
   154  149  158 1   
   155  150  151 2   
   156  150  163 1   
   157  152  153 1   
   158  152  159 1   
   159  152  160 1   
   160  153  154 1   
   161  153  161 1   
   162  153  162 1   
   163  154  155 1   
   164  154  156 1   
   165  163  164 1   
   166  163  168 1   
   167  164  165 1   
   168  164  166 1   
   169  164  167 1   
   170  170  171 1   
   171  170  172 1   
   172  173  174 1   
   173  173  175 1   
   174  176  177 1   
   175  176  178 1   
@<TRIPOS>SUBSTRUCTURE
     1 MOL         1 TEMP              0 ****  ****    0 ROOT
