@<TRIPOS>MOLECULE
MOL
  191   184     1     0     0
SMALL
resp


@<TRIPOS>ATOM
      1 C1         -6.7280   -1.6380    4.2300 c3        1 MOL     -0.369477
      2 C2         -6.4810   -1.5740    2.7250 c         1 MOL      0.810662
      3 O1         -5.5200   -0.9350    2.2660 o         1 MOL     -0.674765
      4 H1         -6.4430   -2.6220    4.6030 hc        1 MOL      0.087285
      5 H2         -6.1320   -0.8740    4.7290 hc        1 MOL      0.087285
      6 H3         -7.7850   -1.4660    4.4330 hc        1 MOL      0.087285
      7 N1         -7.3900   -2.1740    1.9750 n         1 MOL     -0.727823
      8 C3         -7.5000   -2.1610    0.5040 c3        1 MOL      0.304087
      9 C4         -7.5250   -0.7310   -0.1460 c         1 MOL      0.385369
     10 O2         -7.5320   -0.5630   -1.3880 o         1 MOL     -0.433773
     11 C5         -6.6420   -3.2350   -0.2560 c3        1 MOL     -0.143329
     12 C6         -7.4980   -3.8070   -1.3660 c         1 MOL      0.545173
     13 O3         -6.8630   -4.4870   -2.2180 o         1 MOL     -0.596101
     14 O4         -8.7170   -3.4650   -1.5950 o         1 MOL     -0.596101
     15 H4         -8.1240   -2.7330    2.3760 hn        1 MOL      0.360400
     16 H5         -8.5430   -2.4570    0.3690 h1        1 MOL     -0.012329
     17 H6         -6.3160   -3.9500    0.5060 hc        1 MOL      0.056771
     18 H7         -5.7460   -2.7320   -0.6310 hc        1 MOL      0.056771
     19 N2         -7.5920    0.3310    0.7070 n         1 MOL     -0.473832
     20 C7         -7.6180    1.7580    0.3710 c3        1 MOL      0.098944
     21 C8         -6.2950    2.2980   -0.2440 c         1 MOL      0.581131
     22 O5         -6.3480    3.3150   -0.9260 o         1 MOL     -0.576218
     23 C9         -8.0560    2.6580    1.5200 c3        1 MOL     -0.136511
     24 C10        -9.4810    2.3730    2.0710 c3        1 MOL      0.115523
     25 C11        -9.8540    3.3340    3.2220 c3        1 MOL     -0.063270
     26 C12       -11.3500    3.0960    3.6570 c3        1 MOL      0.003553
     27 N3        -11.6280    3.9810    4.8310 n4        1 MOL     -0.101508
     28 H8         -7.4900   -0.0330    1.6450 hn        1 MOL      0.252692
     29 H9         -8.3150    1.9300   -0.4540 h1        1 MOL      0.098586
     30 H10        -7.9610    3.6870    1.1810 hc        1 MOL      0.046518
     31 H11        -7.3240    2.4900    2.3070 hc        1 MOL      0.046518
     32 H12        -9.5240    1.3880    2.5400 hc        1 MOL     -0.004184
     33 H13       -10.2250    2.3320    1.2780 hc        1 MOL     -0.004184
     34 H14        -9.7630    4.4070    3.0610 hc        1 MOL      0.030930
     35 H15        -9.1100    3.0490    3.9690 hc        1 MOL      0.030930
     36 H16       -11.5170    2.0430    3.8730 hx        1 MOL      0.081975
     37 H17       -11.9940    3.3240    2.8160 hx        1 MOL      0.081975
     38 H18       -11.1730    4.8840    4.7910 hn        1 MOL      0.179835
     39 H19       -12.6130    4.0750    5.0610 hn        1 MOL      0.179835
     40 H20       -11.3150    3.5570    5.6990 hn        1 MOL      0.179835
     41 N4         -5.0860    1.6600   -0.0100 n         1 MOL     -0.556824
     42 C13        -3.7690    2.1370   -0.5450 c3        1 MOL      0.028110
     43 C14        -3.8770    1.8410   -2.0630 c         1 MOL      0.540472
     44 O6         -4.2840    0.7480   -2.5430 o         1 MOL     -0.431748
     45 C15        -2.6180    1.3890    0.1050 c3        1 MOL      0.006377
     46 C16        -1.3060    2.0530   -0.3700 c         1 MOL      0.465302
     47 O7         -0.5910    2.6950    0.4220 o         1 MOL     -0.690047
     48 O8         -0.9000    1.8490   -1.5140 o         1 MOL     -0.690047
     49 H21        -5.1400    0.8450    0.5890 hn        1 MOL      0.323452
     50 H22        -3.8210    3.1680   -0.1870 h1        1 MOL      0.091104
     51 H23        -2.6520    0.3640   -0.2550 hc        1 MOL      0.051312
     52 H24        -2.7950    1.3630    1.1900 hc        1 MOL      0.051312
     53 N5         -3.4520    2.8580   -2.9130 n         1 MOL     -0.315697
     54 C17        -3.2250    2.7270   -4.4050 c3        1 MOL     -0.133217
     55 C18        -2.4550    1.5410   -4.8970 c         1 MOL      0.496071
     56 O9         -2.7740    0.9850   -6.0230 o         1 MOL     -0.540401
     57 H25        -3.2120    3.7100   -2.4430 hn        1 MOL      0.198855
     58 H26        -2.7140    3.5960   -4.8290 h1        1 MOL      0.105335
     59 H27        -4.1940    2.6850   -4.8830 h1        1 MOL      0.105335
     60 N6         -1.4250    1.0970   -4.1800 n         1 MOL     -0.472666
     61 C19        -0.6590   -0.1100   -4.5090 c3        1 MOL     -0.070186
     62 C20        -1.4510   -1.4220   -4.1890 c         1 MOL      0.517876
     63 O10        -0.8360   -2.4550   -4.4500 o         1 MOL     -0.553036
     64 C21         0.8020   -0.1500   -3.8200 c3        1 MOL     -0.129653
     65 C22         1.5810    1.1510   -3.9510 c         1 MOL      0.595897
     66 N7          1.6660    1.8190   -5.0730 n         1 MOL     -0.709765
     67 O11         2.1020    1.5860   -2.9440 o         1 MOL     -0.617716
     68 H28        -1.3440    1.4880   -3.2580 hn        1 MOL      0.345753
     69 H29        -0.4100   -0.1090   -5.5690 h1        1 MOL      0.111098
     70 H30         1.4000   -0.9990   -4.1560 hc        1 MOL      0.057808
     71 H31         0.6180   -0.4730   -2.8020 hc        1 MOL      0.057808
     72 H32         1.5110    1.2810   -5.9080 hn        1 MOL      0.361969
     73 H33         2.2080    2.6780   -5.0040 hn        1 MOL      0.361969
     74 N8         -2.6810   -1.3300   -3.6960 n         1 MOL     -0.208558
     75 C23        -3.4710   -2.4980   -3.2570 c3        1 MOL     -0.230524
     76 C24        -3.0590   -3.0900   -1.9140 c         1 MOL      0.591646
     77 O12        -3.2780   -4.2830   -1.7190 o         1 MOL     -0.513478
     78 H34        -3.1840   -0.4530   -3.6530 hn        1 MOL      0.230001
     79 H35        -3.3190   -3.2810   -3.9910 h1        1 MOL      0.153004
     80 H36        -4.5510   -2.3120   -3.2880 h1        1 MOL      0.153004
     81 N9         -2.3530   -2.2970   -1.0150 n         1 MOL     -0.341333
     82 C25        -1.6560   -2.7410    0.2760 c3        1 MOL      0.008234
     83 C26        -0.2640   -2.0860    0.4110 c         1 MOL      0.329511
     84 O13        -0.1140   -0.9350    0.0010 o         1 MOL     -0.316036
     85 C27        -2.6310   -2.2950    1.3900 c3        1 MOL     -0.100346
     86 C28        -2.1390   -2.2890    2.8240 ca        1 MOL      0.033264
     87 C29        -1.6360   -3.4310    3.4610 ca        1 MOL     -0.101944
     88 C30        -2.2280   -1.0390    3.4980 ca        1 MOL     -0.101944
     89 C31        -1.3180   -3.3600    4.8130 ca        1 MOL     -0.322893
     90 C32        -1.8010   -0.9260    4.8270 ca        1 MOL     -0.322893
     91 C33        -1.4010   -2.1310    5.5230 ca        1 MOL      0.400705
     92 O14        -1.0630   -1.9740    6.8120 oh        1 MOL     -0.536246
     93 H37        -2.5190   -1.3050   -1.1140 hn        1 MOL      0.109350
     94 H38        -1.5910   -3.8210    0.3500 h1        1 MOL      0.084856
     95 H39        -3.5600   -2.8620    1.4280 hc        1 MOL      0.097244
     96 H40        -2.8450   -1.2470    1.1710 hc        1 MOL      0.097244
     97 H41        -1.6560   -4.3930    2.9630 ha        1 MOL      0.130977
     98 H42        -2.7100   -0.1680    3.0740 ha        1 MOL      0.130977
     99 H43        -0.9500   -4.2300    5.3310 ha        1 MOL      0.157916
    100 H44        -1.8910    0.0580    5.2550 ha        1 MOL      0.157916
    101 H45        -1.0980   -1.0860    7.1730 ho        1 MOL      0.402927
    102 N10         0.6770   -2.7330    1.2150 n         1 MOL     -0.337230
    103 C34         1.9910   -2.1140    1.4060 c3        1 MOL      0.005390
    104 C35         2.8670   -2.0750    0.1150 c         1 MOL      0.091783
    105 O15         3.6140   -1.0940   -0.0410 o         1 MOL     -0.406951
    106 C36         2.6570   -2.7950    2.6000 c3        1 MOL      0.280344
    107 C37         2.1150   -2.2830    3.9160 c3        1 MOL      0.059176
    108 C38         4.2220   -2.6860    2.5760 c3        1 MOL     -0.297553
    109 C39         2.1410   -3.2740    5.0760 c3        1 MOL     -0.186698
    110 H46         0.4200   -3.4880    1.8280 hn        1 MOL      0.228491
    111 H47         1.8110   -1.0670    1.6630 h1        1 MOL      0.052925
    112 H48         2.4380   -3.8700    2.5930 hc        1 MOL     -0.058702
    113 H49         1.0920   -1.9570    3.7660 hc        1 MOL      0.002623
    114 H50         2.6670   -1.3980    4.2480 hc        1 MOL      0.002623
    115 H51         4.5710   -3.2840    1.7330 hc        1 MOL      0.065350
    116 H52         4.5090   -1.6620    2.3570 hc        1 MOL      0.065350
    117 H53         4.6580   -3.1310    3.4700 hc        1 MOL      0.065350
    118 H54         3.1380   -3.6660    5.3000 hc        1 MOL      0.048305
    119 H55         1.8490   -2.6920    5.9570 hc        1 MOL      0.048305
    120 H56         1.4240   -4.0800    4.9170 hc        1 MOL      0.048305
    121 N11         2.8320   -3.0660   -0.7660 n         1 MOL      0.049616
    122 C40         3.3180   -3.0010   -2.1250 c3        1 MOL     -0.342498
    123 C41         4.8670   -3.1460   -2.2750 c         1 MOL      0.395705
    124 O16         5.5620   -2.7290   -3.2000 o         1 MOL     -0.495264
    125 C42         2.6720   -4.1620   -2.9180 c3        1 MOL      0.250634
    126 O17         2.8750   -5.3570   -2.2940 oh        1 MOL     -0.589770
    127 H57         2.2700   -3.8810   -0.5450 hn        1 MOL      0.188648
    128 H58         3.0970   -2.0420   -2.5840 h1        1 MOL      0.184006
    129 H59         2.9990   -4.2060   -3.9640 h1        1 MOL      0.054304
    130 H60         1.5980   -4.0440   -3.0570 h1        1 MOL      0.054304
    131 H61         3.6580   -5.7470   -2.7010 ho        1 MOL      0.385360
    132 N12         5.4040   -3.7870   -1.2500 n         1 MOL     -0.170035
    133 C43         6.7720   -3.9420   -0.8340 c3        1 MOL      0.233878
    134 C44         7.5740   -2.5990   -0.8290 c         1 MOL      0.387611
    135 O18         8.7930   -2.6700   -1.0200 o         1 MOL     -0.512954
    136 C45         7.3430   -5.1380   -1.6550 c3        1 MOL     -0.322158
    137 H62         4.7080   -4.2690   -0.6900 hn        1 MOL      0.145527
    138 H63         6.7780   -4.1890    0.2340 h1        1 MOL      0.027493
    139 H64         7.2550   -4.9670   -2.7260 hc        1 MOL      0.088537
    140 H65         8.3690   -5.3850   -1.4020 hc        1 MOL      0.088537
    141 H66         6.7290   -5.9780   -1.3430 hc        1 MOL      0.088537
    142 N13         6.8490   -1.4840   -0.8380 n         1 MOL     -0.464406
    143 C46         7.3570   -0.1530   -0.7040 c3        1 MOL      0.665701
    144 C47         7.5200    0.3560    0.7250 c         1 MOL      0.112648
    145 O19         6.7500    0.1380    1.6550 o         1 MOL     -0.367144
    146 C48         6.5410    0.8340   -1.5670 c3        1 MOL     -0.249376
    147 H67         5.8600   -1.6460   -0.8140 hn        1 MOL      0.200149
    148 H68         8.3630   -0.1720   -1.1210 h1        1 MOL     -0.075022
    149 H69         6.7300    0.5580   -2.6120 hc        1 MOL      0.049370
    150 H70         5.4980    0.6300   -1.2980 hc        1 MOL      0.049370
    151 H71         6.9380    1.8420   -1.5020 hc        1 MOL      0.049370
    152 N14         8.4640    1.3010    0.8250 n         1 MOL     -0.380646
    153 C49         8.8750    2.0630    2.0540 c3        1 MOL      0.072485
    154 C50         9.0530    1.1930    3.3170 c         1 MOL      0.302920
    155 O20         8.7650    1.6180    4.4370 o         1 MOL     -0.467419
    156 C51         7.8650    3.1850    2.2940 c3        1 MOL      0.389719
    157 C52         8.0560    4.3690    1.3600 c3        1 MOL     -0.347921
    158 C53         7.2110    5.6430    1.8040 c         1 MOL      0.759603
    159 O21         7.5780    6.7740    1.4650 o         1 MOL     -0.704451
    160 O22         6.1710    5.5310    2.4900 o         1 MOL     -0.704451
    161 H72         9.0420    1.5040    0.0220 hn        1 MOL      0.236997
    162 H73         9.7970    2.6190    1.9490 h1        1 MOL      0.038303
    163 H74         8.0270    3.5330    3.3130 hc        1 MOL     -0.068091
    164 H75         6.8420    2.7990    2.2980 hc        1 MOL     -0.068091
    165 H76         7.7980    4.1050    0.3330 hc        1 MOL      0.029923
    166 H77         9.1160    4.6240    1.3820 hc        1 MOL      0.029923
    167 N15         9.5470   -0.0360    3.1630 n         1 MOL     -0.138829
    168 C54         9.5320   -1.1080    4.1280 c3        1 MOL     -0.237474
    169 H78         8.6250   -1.0400    4.7300 h1        1 MOL      0.104931
    170 H79         9.5520   -2.0650    3.6090 h1        1 MOL      0.104931
    171 H80        10.4050   -1.0270    4.7760 h1        1 MOL      0.104931
    172 H81        10.0410   -0.1600    2.2950 hn        1 MOL      0.187033
    173 Ca1         1.1640    3.4710   -1.2430 Ca        1 MOL      1.834401
    174 O23         1.4290    4.6870    1.3530 oh        1 MOL     -0.852273
    175 H82         2.1340    5.3250    1.4360 ho        1 MOL      0.423816
    176 H83         0.8860    4.8270    2.1260 ho        1 MOL      0.423816
    177 O24         1.8940    1.0260   -0.2490 oh        1 MOL     -0.852273
    178 H84         2.5510    0.4150   -0.5770 ho        1 MOL      0.423816
    179 H85         1.1480    0.4730   -0.0110 ho        1 MOL      0.423816
    180 O25        -0.8930    4.5990   -2.4680 oh        1 MOL     -0.852273
    181 H86        -0.6740    5.1000   -3.2590 ho        1 MOL      0.423816
    182 H87        -1.7250    4.9860   -2.1770 ho        1 MOL      0.423816
    183 O26         1.4320    6.2050   -0.9650 oh        1 MOL     -0.852273
    184 H88         2.2490    6.6900   -0.8400 ho        1 MOL      0.423816
    185 H89         0.7570    6.7700   -0.5990 ho        1 MOL      0.423816
    186 O27         3.7250    3.5970   -0.5390 oh        1 MOL     -0.852273
    187 H90         4.5550    3.9130   -0.8830 ho        1 MOL      0.423816
    188 H91         3.9330    3.2590    0.3320 ho        1 MOL      0.423816
    189 O28         2.2830    4.3380   -3.4960 oh        1 MOL     -0.852273
    190 H92         2.3190    4.8770   -4.2810 ho        1 MOL      0.423816
    191 H93         3.1900    4.2630   -3.2040 ho        1 MOL      0.423816
@<TRIPOS>BOND
     1    1    2 1   
     2    1    4 1   
     3    1    5 1   
     4    1    6 1   
     5    2    3 2   
     6    2    7 1   
     7    7    8 1   
     8    7   15 1   
     9    8    9 1   
    10    8   11 1   
    11    8   16 1   
    12    9   10 2   
    13    9   19 1   
    14   11   12 1   
    15   11   17 1   
    16   11   18 1   
    17   12   13 1   
    18   12   14 1   
    19   19   20 1   
    20   19   28 1   
    21   20   21 1   
    22   20   23 1   
    23   20   29 1   
    24   21   22 2   
    25   21   41 1   
    26   23   24 1   
    27   23   30 1   
    28   23   31 1   
    29   24   25 1   
    30   24   32 1   
    31   24   33 1   
    32   25   26 1   
    33   25   34 1   
    34   25   35 1   
    35   26   27 1   
    36   26   36 1   
    37   26   37 1   
    38   27   38 1   
    39   27   39 1   
    40   27   40 1   
    41   41   42 1   
    42   41   49 1   
    43   42   43 1   
    44   42   45 1   
    45   42   50 1   
    46   43   44 2   
    47   43   53 1   
    48   45   46 1   
    49   45   51 1   
    50   45   52 1   
    51   46   47 1   
    52   46   48 1   
    53   53   54 1   
    54   53   57 1   
    55   54   55 1   
    56   54   58 1   
    57   54   59 1   
    58   55   56 2   
    59   55   60 1   
    60   60   61 1   
    61   60   68 1   
    62   61   62 1   
    63   61   64 1   
    64   61   69 1   
    65   62   63 2   
    66   62   74 1   
    67   64   65 1   
    68   64   70 1   
    69   64   71 1   
    70   65   66 1   
    71   65   67 2   
    72   66   72 1   
    73   66   73 1   
    74   74   75 1   
    75   74   78 1   
    76   75   76 1   
    77   75   79 1   
    78   75   80 1   
    79   76   77 2   
    80   76   81 1   
    81   81   82 1   
    82   81   93 1   
    83   82   83 1   
    84   82   85 1   
    85   82   94 1   
    86   83   84 2   
    87   83  102 1   
    88   85   86 1   
    89   85   95 1   
    90   85   96 1   
    91   86   87 ar  
    92   86   88 ar  
    93   87   89 ar  
    94   87   97 1   
    95   88   90 ar  
    96   88   98 1   
    97   89   91 ar  
    98   89   99 1   
    99   90   91 ar  
   100   90  100 1   
   101   91   92 1   
   102   92  101 1   
   103  102  103 1   
   104  102  110 1   
   105  103  104 1   
   106  103  106 1   
   107  103  111 1   
   108  104  105 2   
   109  104  121 1   
   110  106  107 1   
   111  106  108 1   
   112  106  112 1   
   113  107  109 1   
   114  107  113 1   
   115  107  114 1   
   116  108  115 1   
   117  108  116 1   
   118  108  117 1   
   119  109  118 1   
   120  109  119 1   
   121  109  120 1   
   122  121  122 1   
   123  121  127 1   
   124  122  123 1   
   125  122  125 1   
   126  122  128 1   
   127  123  124 2   
   128  123  132 1   
   129  125  126 1   
   130  125  129 1   
   131  125  130 1   
   132  126  131 1   
   133  132  133 1   
   134  132  137 1   
   135  133  134 1   
   136  133  136 1   
   137  133  138 1   
   138  134  135 2   
   139  134  142 1   
   140  136  139 1   
   141  136  140 1   
   142  136  141 1   
   143  142  143 1   
   144  142  147 1   
   145  143  144 1   
   146  143  146 1   
   147  143  148 1   
   148  144  145 2   
   149  144  152 1   
   150  146  149 1   
   151  146  150 1   
   152  146  151 1   
   153  152  153 1   
   154  152  161 1   
   155  153  154 1   
   156  153  156 1   
   157  153  162 1   
   158  154  155 2   
   159  154  167 1   
   160  156  157 1   
   161  156  163 1   
   162  156  164 1   
   163  157  158 1   
   164  157  165 1   
   165  157  166 1   
   166  158  159 1   
   167  158  160 1   
   168  167  168 1   
   169  167  172 1   
   170  168  169 1   
   171  168  170 1   
   172  168  171 1   
   173  174  175 1   
   174  174  176 1   
   175  177  178 1   
   176  177  179 1   
   177  180  181 1   
   178  180  182 1   
   179  183  184 1   
   180  183  185 1   
   181  186  187 1   
   182  186  188 1   
   183  189  190 1   
   184  189  191 1   
@<TRIPOS>SUBSTRUCTURE
     1 MOL         1 TEMP              0 ****  ****    0 ROOT
