@<TRIPOS>MOLECULE
MOL
  179   176     1     0     0
SMALL
resp


@<TRIPOS>ATOM
      1 C1          2.9930    0.0630    6.2990 c3        1 MOL     -0.320973
      2 C2          2.7220    0.5600    4.8990 c         1 MOL      0.694529
      3 O1          3.4210    0.2230    3.9220 o         1 MOL     -0.597146
      4 H1          2.4040   -0.8350    6.4860 hc        1 MOL      0.100929
      5 H2          4.0520   -0.1710    6.4040 hc        1 MOL      0.100929
      6 H3          2.7180    0.8340    7.0190 hc        1 MOL      0.100929
      7 N1          1.8040    1.5000    4.5730 n         1 MOL     -0.586423
      8 C3          1.3980    1.8850    3.2130 c3        1 MOL      0.064321
      9 C4          2.2110    3.0120    2.6000 c         1 MOL      0.641846
     10 O2          2.0990    4.1390    3.0840 o         1 MOL     -0.561689
     11 C5         -0.1290    2.1710    3.0900 c3        1 MOL      0.046424
     12 C6         -0.7230    1.8040    1.7260 c         1 MOL      0.669636
     13 O3         -1.9300    1.3790    1.6360 o         1 MOL     -0.708475
     14 O4         -0.0230    1.9050    0.6930 o         1 MOL     -0.708475
     15 H4          1.1400    1.7670    5.2920 hn        1 MOL      0.311994
     16 H5          1.6310    1.0480    2.5620 h1        1 MOL     -0.059088
     17 H6         -0.3040    3.2250    3.3120 hc        1 MOL      0.004580
     18 H7         -0.6020    1.6680    3.9280 hc        1 MOL      0.004580
     19 N2          3.0460    2.7440    1.6070 n         1 MOL     -0.342258
     20 C7          3.6660    3.7800    0.7630 c3        1 MOL     -0.118898
     21 C8          2.6400    4.7890    0.1290 c         1 MOL      0.590081
     22 O5          3.0050    5.9280   -0.0790 o         1 MOL     -0.583416
     23 C9          4.4120    3.0390   -0.3530 c3        1 MOL     -0.182797
     24 C10         5.0620    3.8940   -1.3720 c3        1 MOL     -0.153719
     25 C11         6.3480    4.5630   -0.8780 c3        1 MOL     -0.004841
     26 C12         6.8580    5.5230   -1.8480 c3        1 MOL     -0.021660
     27 N3          6.0130    6.6950   -2.0780 n4        1 MOL     -0.429301
     28 H8          3.4140    1.8090    1.5260 hn        1 MOL      0.288494
     29 H9          4.2880    4.4120    1.4070 h1        1 MOL      0.103292
     30 H10         3.7320    2.2920   -0.7420 hc        1 MOL      0.109068
     31 H11         5.2150    2.4540    0.0890 hc        1 MOL      0.109068
     32 H12         4.3860    4.6450   -1.7770 hc        1 MOL      0.068520
     33 H13         5.4560    3.2710   -2.1670 hc        1 MOL      0.068520
     34 H14         7.0790    3.7520   -0.7940 hc        1 MOL      0.064131
     35 H15         6.1310    5.0890    0.0490 hc        1 MOL      0.064131
     36 H16         7.1620    4.9400   -2.7240 hx        1 MOL      0.102075
     37 H17         7.7920    5.8830   -1.4160 hx        1 MOL      0.102075
     38 H18         5.1000    6.4420   -2.4160 hn        1 MOL      0.331762
     39 H19         5.8630    7.1110   -1.1650 hn        1 MOL      0.331762
     40 H20         6.3290    7.3450   -2.7740 hn        1 MOL      0.331762
     41 N4          1.4370    4.3150   -0.2350 n         1 MOL     -0.362837
     42 C13         0.4840    5.0500   -1.0480 c3        1 MOL      0.289832
     43 C14        -0.7540    5.5160   -0.2230 c         1 MOL      0.293831
     44 O6         -1.4600    6.4530   -0.6300 o         1 MOL     -0.513793
     45 C15         0.0650    4.2830   -2.2730 c3        1 MOL     -0.277849
     46 C16        -0.5000    2.8910   -2.0050 c         1 MOL      0.861149
     47 O7         -1.6740    2.8030   -1.6060 o         1 MOL     -0.773694
     48 O8          0.1150    1.8140   -2.2800 o         1 MOL     -0.773694
     49 H21         1.2490    3.3460   -0.0260 hn        1 MOL      0.201030
     50 H22         0.8350    5.9960   -1.4680 h1        1 MOL      0.030841
     51 H23         0.9790    4.1700   -2.8600 hc        1 MOL      0.057552
     52 H24        -0.6890    4.8370   -2.8210 hc        1 MOL      0.057552
     53 N5         -1.0530    4.8800    0.9150 n         1 MOL     -0.027833
     54 C17        -2.2010    5.3510    1.6880 c3        1 MOL     -0.083337
     55 C18        -3.5510    5.0980    1.0940 c         1 MOL      0.560704
     56 O9         -4.5220    5.6390    1.6510 o         1 MOL     -0.566739
     57 H25        -0.5820    4.0050    1.0990 hn        1 MOL     -0.079338
     58 H26        -2.1190    6.4210    1.8420 h1        1 MOL      0.082610
     59 H27        -2.1530    4.9500    2.7010 h1        1 MOL      0.082610
     60 N6         -3.6750    4.2420    0.0670 n         1 MOL     -0.341191
     61 C19        -4.9890    3.8600   -0.5340 c3        1 MOL      0.102830
     62 C20        -5.0710    2.3730   -0.8800 c         1 MOL      0.431640
     63 O10        -4.0620    1.5910   -0.8820 o         1 MOL     -0.479780
     64 C21        -5.3640    4.6030   -1.7540 c3        1 MOL     -0.188846
     65 C22        -4.9650    3.9280   -3.0900 c         1 MOL      0.594766
     66 N7         -3.6600    3.4900   -3.1650 n         1 MOL     -0.708253
     67 O11        -5.7630    3.8050   -3.9870 o         1 MOL     -0.566106
     68 H28        -2.9090    3.5940    0.0310 hn        1 MOL      0.301912
     69 H29        -5.6810    4.0110    0.2910 h1        1 MOL      0.038272
     70 H30        -5.0720    5.6560   -1.7640 hc        1 MOL      0.072763
     71 H31        -6.4500    4.5820   -1.8110 hc        1 MOL      0.072763
     72 H32        -2.9960    3.4700   -2.4050 hn        1 MOL      0.314411
     73 H33        -3.4960    2.9100   -3.9710 hn        1 MOL      0.314411
     74 N8         -6.3170    1.9480   -1.0090 n         1 MOL     -0.356398
     75 C23        -6.6290    0.5630   -1.4620 c3        1 MOL     -0.138691
     76 C24        -6.3220   -0.5230   -0.3910 c         1 MOL      0.610842
     77 O12        -6.4600   -0.2130    0.7710 o         1 MOL     -0.505347
     78 H34        -7.0390    2.6360   -0.8720 hn        1 MOL      0.322576
     79 H35        -5.9630    0.2660   -2.2590 h1        1 MOL      0.083184
     80 H36        -7.6870    0.5340   -1.7460 h1        1 MOL      0.083184
     81 N9         -5.8690   -1.6780   -0.8270 n         1 MOL     -0.546538
     82 C25        -5.2000   -2.7130    0.0020 c3        1 MOL      0.022683
     83 C26        -3.9570   -2.2040    0.7120 c         1 MOL      0.361091
     84 O13        -3.5180   -1.0820    0.3970 o         1 MOL     -0.370336
     85 C27        -4.9450   -3.8960   -0.9560 c3        1 MOL     -0.131857
     86 C28        -6.2520   -4.4670   -1.5010 ca        1 MOL      0.027886
     87 C29        -6.5640   -4.6130   -2.8720 ca        1 MOL     -0.119591
     88 C30        -7.2170   -4.9220   -0.5800 ca        1 MOL     -0.119591
     89 C31        -7.8660   -5.0490   -3.2960 ca        1 MOL     -0.263384
     90 C32        -8.5120   -5.3120   -0.9650 ca        1 MOL     -0.263384
     91 C33        -8.8470   -5.3420   -2.3450 ca        1 MOL      0.343396
     92 O14       -10.0520   -5.8090   -2.8030 oh        1 MOL     -0.498226
     93 H37        -5.8810   -1.8180   -1.8250 hn        1 MOL      0.307851
     94 H38        -5.8440   -2.9740    0.8350 h1        1 MOL      0.113749
     95 H39        -4.2980   -4.6390   -0.4790 hc        1 MOL      0.062587
     96 H40        -4.3180   -3.5550   -1.7810 hc        1 MOL      0.062587
     97 H41        -5.7660   -4.3760   -3.5570 ha        1 MOL      0.114113
     98 H42        -6.9740   -4.8740    0.4780 ha        1 MOL      0.114113
     99 H43        -8.1270   -4.9810   -4.3450 ha        1 MOL      0.158565
    100 H44        -9.2090   -5.6620   -0.2180 ha        1 MOL      0.158565
    101 H45       -10.6620   -6.1560   -2.1550 ho        1 MOL      0.386290
    102 N10        -3.5200   -3.0050    1.6740 n         1 MOL     -0.661167
    103 C34        -2.3950   -2.6070    2.6470 c3        1 MOL      0.486702
    104 C35        -1.0140   -2.1750    2.1490 c         1 MOL      0.305327
    105 O15        -0.9300   -1.4200    1.2210 o         1 MOL     -0.456326
    106 C36        -3.0310   -1.7200    3.7750 c3        1 MOL      0.308034
    107 C37        -2.3150   -1.8760    5.0660 c3        1 MOL     -0.385885
    108 C38        -4.5840   -1.7680    4.0390 c3        1 MOL     -0.055737
    109 C39        -2.4580   -3.1470    5.8290 c3        1 MOL     -0.022064
    110 H46        -4.1200   -3.7340    2.0490 hn        1 MOL      0.357487
    111 H47        -2.2610   -3.5430    3.1930 h1        1 MOL     -0.106239
    112 H48        -2.7590   -0.7310    3.4090 hc        1 MOL     -0.099170
    113 H49        -2.6230   -1.1210    5.7900 hc        1 MOL      0.123371
    114 H50        -1.2380   -1.6980    5.0270 hc        1 MOL      0.123371
    115 H51        -5.1490   -1.3000    3.2330 hc        1 MOL      0.019570
    116 H52        -4.8280   -2.8260    3.9070 hc        1 MOL      0.019570
    117 H53        -4.8860   -1.3980    5.0200 hc        1 MOL      0.019570
    118 H54        -1.5290   -3.7110    5.7760 hc        1 MOL      0.008211
    119 H55        -2.6590   -2.9910    6.8900 hc        1 MOL      0.008211
    120 H56        -3.3270   -3.6640    5.4150 hc        1 MOL      0.008211
    121 N11        -0.0060   -2.6850    2.8600 n         1 MOL     -0.577747
    122 C40         1.4020   -2.0700    2.8260 c3        1 MOL      0.044794
    123 C41         2.1210   -2.2480    1.4790 c         1 MOL      0.478160
    124 O16         3.2460   -1.7690    1.3210 o         1 MOL     -0.501290
    125 C42         2.2740   -2.7150    3.8820 c3        1 MOL     -0.008990
    126 O17         1.5600   -2.8530    5.1870 oh        1 MOL     -0.587458
    127 H57        -0.1900   -3.3640    3.5730 hn        1 MOL      0.329091
    128 H58         1.4660   -0.9910    2.9480 h1        1 MOL      0.230878
    129 H59         3.2150   -2.1760    4.0350 h1        1 MOL      0.122405
    130 H60         2.6130   -3.6990    3.5780 h1        1 MOL      0.122405
    131 H61         1.2380   -3.7560    5.2790 ho        1 MOL      0.394737
    132 N12         1.6210   -3.0680    0.5420 n         1 MOL     -0.487701
    133 C43         2.2050   -2.9950   -0.8370 c3        1 MOL      0.020636
    134 C44         1.9200   -1.5790   -1.3740 c         1 MOL      0.734413
    135 O18         0.8490   -1.0640   -1.0960 o         1 MOL     -0.602320
    136 C45         1.5990   -4.0440   -1.7900 c3        1 MOL     -0.257493
    137 H62         0.6610   -3.3880    0.6150 hn        1 MOL      0.302298
    138 H63         3.2610   -3.2490   -0.7430 h1        1 MOL      0.152662
    139 H64         1.8260   -5.0480   -1.4500 hc        1 MOL      0.073603
    140 H65         0.5250   -3.9810   -1.9300 hc        1 MOL      0.073603
    141 H66         2.0380   -3.9380   -2.7840 hc        1 MOL      0.073603
    142 N13         2.9150   -0.8460   -1.9930 n         1 MOL     -0.815401
    143 C46         4.3540   -1.1670   -2.0500 c3        1 MOL      0.408650
    144 C47         4.5770   -2.5250   -2.8540 c         1 MOL      0.699317
    145 O19         4.1480   -2.6680   -4.0000 o         1 MOL     -0.571458
    146 C48         4.9390    0.0030   -2.7570 c3        1 MOL     -0.566282
    147 H67         2.7410    0.1230   -2.2150 hn        1 MOL      0.392237
    148 H68         4.7640   -1.1410   -1.0330 h1        1 MOL      0.086690
    149 H69         4.4890    0.0510   -3.7430 hc        1 MOL      0.139406
    150 H70         4.8340    0.8960   -2.1390 hc        1 MOL      0.139406
    151 H71         6.0020   -0.1920   -2.8800 hc        1 MOL      0.139406
    152 N14         5.2570   -3.5710   -2.2650 n         1 MOL     -0.507899
    153 C49         6.0650   -3.5450   -1.0300 c3        1 MOL     -0.529296
    154 C50         6.5000   -4.8790   -0.4060 c         1 MOL      0.800266
    155 O20         6.8380   -4.9160    0.7430 o         1 MOL     -0.562269
    156 C51         7.3780   -2.7150   -1.2650 c3        1 MOL      0.299497
    157 C52         8.2820   -3.1600   -2.3660 c3        1 MOL     -0.154130
    158 C53         9.5960   -2.4030   -2.2780 c         1 MOL      0.650073
    159 O21        10.5790   -3.1140   -2.4660 o         1 MOL     -0.680245
    160 O22         9.7460   -1.1970   -1.8650 o         1 MOL     -0.680245
    161 H72         5.2820   -4.4190   -2.8000 hn        1 MOL      0.277810
    162 H73         5.5890   -2.9910   -0.2130 h1        1 MOL      0.126759
    163 H74         8.0490   -2.7280   -0.4110 hc        1 MOL     -0.034461
    164 H75         7.0630   -1.6900   -1.4890 hc        1 MOL     -0.034461
    165 H76         7.7670   -3.0610   -3.3240 hc        1 MOL      0.006042
    166 H77         8.4300   -4.2220   -2.1890 hc        1 MOL      0.006042
    167 N15         6.4700   -6.0010   -1.1290 n         1 MOL     -0.453665
    168 C54         6.8710   -7.2770   -0.4690 c3        1 MOL     -0.119220
    169 H78         5.9830   -7.7890   -0.0980 h1        1 MOL      0.086911
    170 H79         7.3830   -7.9150   -1.1900 h1        1 MOL      0.086911
    171 H80         7.5390   -7.0610    0.3660 h1        1 MOL      0.086911
    172 H81         6.2760   -5.9610   -2.1170 hn        1 MOL      0.317690
    173 Ca1        -1.4670    0.2070   -0.7990 Ca        1 MOL      1.763452
    174 O23        -2.8080    0.1520   -3.1580 oh        1 MOL     -0.823234
    175 H82        -2.6170    0.6920   -3.9170 ho        1 MOL      0.411575
    176 H83        -3.6750   -0.2180   -3.3320 ho        1 MOL      0.411575
    177 O24        -1.6040   -2.2590   -1.6760 oh        1 MOL     -0.823234
    178 H84        -1.6730   -2.9710   -1.0440 ho        1 MOL      0.411575
    179 H85        -1.4460   -2.6920   -2.5130 ho        1 MOL      0.411575
@<TRIPOS>BOND
     1    1    2 1   
     2    1    4 1   
     3    1    5 1   
     4    1    6 1   
     5    2    3 2   
     6    2    7 1   
     7    7    8 1   
     8    7   15 1   
     9    8    9 1   
    10    8   11 1   
    11    8   16 1   
    12    9   10 2   
    13    9   19 1   
    14   11   12 1   
    15   11   17 1   
    16   11   18 1   
    17   12   13 1   
    18   12   14 1   
    19   19   20 1   
    20   19   28 1   
    21   20   21 1   
    22   20   23 1   
    23   20   29 1   
    24   21   22 2   
    25   21   41 1   
    26   23   24 1   
    27   23   30 1   
    28   23   31 1   
    29   24   25 1   
    30   24   32 1   
    31   24   33 1   
    32   25   26 1   
    33   25   34 1   
    34   25   35 1   
    35   26   27 1   
    36   26   36 1   
    37   26   37 1   
    38   27   38 1   
    39   27   39 1   
    40   27   40 1   
    41   41   42 1   
    42   41   49 1   
    43   42   43 1   
    44   42   45 1   
    45   42   50 1   
    46   43   44 2   
    47   43   53 1   
    48   45   46 1   
    49   45   51 1   
    50   45   52 1   
    51   46   47 1   
    52   46   48 1   
    53   53   54 1   
    54   53   57 1   
    55   54   55 1   
    56   54   58 1   
    57   54   59 1   
    58   55   56 2   
    59   55   60 1   
    60   60   61 1   
    61   60   68 1   
    62   61   62 1   
    63   61   64 1   
    64   61   69 1   
    65   62   63 2   
    66   62   74 1   
    67   64   65 1   
    68   64   70 1   
    69   64   71 1   
    70   65   66 1   
    71   65   67 2   
    72   66   72 1   
    73   66   73 1   
    74   74   75 1   
    75   74   78 1   
    76   75   76 1   
    77   75   79 1   
    78   75   80 1   
    79   76   77 2   
    80   76   81 1   
    81   81   82 1   
    82   81   93 1   
    83   82   83 1   
    84   82   85 1   
    85   82   94 1   
    86   83   84 2   
    87   83  102 1   
    88   85   86 1   
    89   85   95 1   
    90   85   96 1   
    91   86   87 ar  
    92   86   88 ar  
    93   87   89 ar  
    94   87   97 1   
    95   88   90 ar  
    96   88   98 1   
    97   89   91 ar  
    98   89   99 1   
    99   90   91 ar  
   100   90  100 1   
   101   91   92 1   
   102   92  101 1   
   103  102  103 1   
   104  102  110 1   
   105  103  104 1   
   106  103  106 1   
   107  103  111 1   
   108  104  105 2   
   109  104  121 1   
   110  106  107 1   
   111  106  108 1   
   112  106  112 1   
   113  107  109 1   
   114  107  113 1   
   115  107  114 1   
   116  108  115 1   
   117  108  116 1   
   118  108  117 1   
   119  109  118 1   
   120  109  119 1   
   121  109  120 1   
   122  121  122 1   
   123  121  127 1   
   124  122  123 1   
   125  122  125 1   
   126  122  128 1   
   127  123  124 2   
   128  123  132 1   
   129  125  126 1   
   130  125  129 1   
   131  125  130 1   
   132  126  131 1   
   133  132  133 1   
   134  132  137 1   
   135  133  134 1   
   136  133  136 1   
   137  133  138 1   
   138  134  135 2   
   139  134  142 1   
   140  136  139 1   
   141  136  140 1   
   142  136  141 1   
   143  142  143 1   
   144  142  147 1   
   145  143  144 1   
   146  143  146 1   
   147  143  148 1   
   148  144  145 2   
   149  144  152 1   
   150  146  149 1   
   151  146  150 1   
   152  146  151 1   
   153  152  153 1   
   154  152  161 1   
   155  153  154 1   
   156  153  156 1   
   157  153  162 1   
   158  154  155 2   
   159  154  167 1   
   160  156  157 1   
   161  156  163 1   
   162  156  164 1   
   163  157  158 1   
   164  157  165 1   
   165  157  166 1   
   166  158  159 1   
   167  158  160 1   
   168  167  168 1   
   169  167  172 1   
   170  168  169 1   
   171  168  170 1   
   172  168  171 1   
   173  174  175 1   
   174  174  176 1   
   175  177  178 1   
   176  177  179 1   
@<TRIPOS>SUBSTRUCTURE
     1 MOL         1 TEMP              0 ****  ****    0 ROOT
