@<TRIPOS>MOLECULE
MOL
  178   175     1     0     0
SMALL
resp


@<TRIPOS>ATOM
      1 C1          0.2120    6.8630   -1.9660 c3        1 MOL     -0.388548
      2 C2          1.5720    6.8900   -1.3250 c         1 MOL      0.739354
      3 O1          1.7580    7.5650   -0.2940 o         1 MOL     -0.595240
      4 H1         -0.3410    5.9950   -1.6080 hc        1 MOL      0.089557
      5 H2         -0.3310    7.7710   -1.7040 hc        1 MOL      0.089557
      6 H3          0.3210    6.8030   -3.0490 hc        1 MOL      0.089557
      7 N1          2.4850    6.1450   -1.9040 n         1 MOL     -0.648203
      8 C3          3.7990    5.9630   -1.3240 c3        1 MOL      0.245000
      9 C4          3.7700    4.8670   -0.3010 c         1 MOL      0.578935
     10 O2          3.2820    3.7630   -0.5120 o         1 MOL     -0.546017
     11 C5          4.7610    5.5520   -2.4320 c3        1 MOL     -0.091751
     12 C6          6.2140    5.5830   -1.9670 c         1 MOL      0.630462
     13 O3          6.5480    6.4390   -1.0630 o         1 MOL     -0.701897
     14 O4          7.0590    4.7650   -2.4250 o         1 MOL     -0.701897
     15 H4          2.3860    5.7180   -2.8120 hn        1 MOL      0.319325
     16 H5          4.1840    6.9100   -0.9290 h1        1 MOL     -0.001715
     17 H6          4.6330    6.2150   -3.2810 hc        1 MOL     -0.004330
     18 H7          4.4530    4.5820   -2.8240 hc        1 MOL     -0.004330
     19 N2          4.4180    5.1250    0.8800 n         1 MOL     -0.543831
     20 C7          4.5390    4.2970    2.0600 c3        1 MOL      0.332353
     21 C8          3.1750    3.8190    2.5880 c         1 MOL      0.478254
     22 O5          2.1640    4.5020    2.4010 o         1 MOL     -0.569186
     23 C9          5.4240    5.0690    3.0500 c3        1 MOL     -0.468993
     24 H8          4.9030    6.0090    0.9590 hn        1 MOL      0.292465
     25 H9          5.1630    3.4220    1.8720 h1        1 MOL      0.071790
     26 H10         4.9210    5.9920    3.3460 hc        1 MOL      0.118204
     27 H11         5.5550    4.3870    3.8850 hc        1 MOL      0.118204
     28 H12         6.3750    5.3980    2.6410 hc        1 MOL      0.118204
     29 N3          3.0080    2.6220    3.1540 n         1 MOL     -0.397599
     30 C10         4.0400    1.5920    3.5190 c3        1 MOL     -0.040875
     31 C11         4.4400    0.5540    2.3680 c         1 MOL      0.140634
     32 O6          3.6980    0.5290    1.3790 o         1 MOL     -0.331696
     33 C12         3.5060    0.8540    4.7550 c3        1 MOL     -0.184866
     34 C13         2.1230    0.2420    4.6150 c         1 MOL      0.680816
     35 O7          1.6920   -0.0980    3.4510 o         1 MOL     -0.651863
     36 O8          1.4480    0.0280    5.6750 o         1 MOL     -0.651863
     37 H13         2.0390    2.4360    3.3910 hn        1 MOL      0.289342
     38 H14         4.8950    2.2020    3.8220 h1        1 MOL      0.106000
     39 H15         3.5400    1.5000    5.6230 hc        1 MOL      0.035932
     40 H16         4.1420    0.0030    4.9720 hc        1 MOL      0.035932
     41 N4          5.5270   -0.1560    2.5710 n         1 MOL     -0.284378
     42 C14         5.9080   -1.2280    1.5810 c3        1 MOL      0.072893
     43 C15         6.9140   -0.7420    0.5590 c         1 MOL      0.416925
     44 O9          7.2250    0.4870    0.5520 o         1 MOL     -0.444021
     45 H17         6.1860    0.1240    3.2900 hn        1 MOL      0.275883
     46 H18         4.9930   -1.6100    1.1360 h1        1 MOL      0.049238
     47 H19         6.3670   -2.0330    2.1490 h1        1 MOL      0.049238
     48 N5          7.5130   -1.6160   -0.3050 n         1 MOL     -0.440987
     49 C16         7.2360   -3.0090   -0.6030 c3        1 MOL      0.171321
     50 C17         5.9260   -3.1560   -1.3940 c         1 MOL      0.426236
     51 O10         5.0980   -2.1640   -1.4600 o         1 MOL     -0.438915
     52 C18         8.3910   -3.6560   -1.4730 c3        1 MOL     -0.334712
     53 C19         8.4010   -3.2140   -2.9030 c         1 MOL      0.767309
     54 N6          8.2860   -4.1080   -3.8420 n         1 MOL     -0.848645
     55 O11         8.6100   -2.0710   -3.1390 o         1 MOL     -0.528660
     56 H20         8.3850   -1.2240   -0.6560 hn        1 MOL      0.295654
     57 H21         7.1640   -3.5400    0.3490 h1        1 MOL      0.034131
     58 H22         8.2220   -4.7270   -1.4500 hc        1 MOL      0.077049
     59 H23         9.2610   -3.3100   -0.9150 hc        1 MOL      0.077049
     60 H24         7.9630   -5.0520   -3.6480 hn        1 MOL      0.382768
     61 H25         8.4310   -3.7360   -4.7690 hn        1 MOL      0.382768
     62 N7          5.6560   -4.2780   -1.9660 n         1 MOL     -0.358603
     63 C20         4.5470   -4.6820   -2.8540 c3        1 MOL     -0.292380
     64 C21         3.1740   -4.8210   -2.1950 c         1 MOL      0.571307
     65 O12         2.1330   -4.7900   -2.9410 o         1 MOL     -0.573630
     66 H26         6.3730   -4.9910   -1.8660 hn        1 MOL      0.271753
     67 H27         4.7850   -5.6160   -3.3500 h1        1 MOL      0.164112
     68 H28         4.4550   -3.9070   -3.6130 h1        1 MOL      0.164112
     69 N8          3.0560   -4.8170   -0.8620 n         1 MOL     -0.407342
     70 C22         1.7640   -5.0520   -0.1060 c3        1 MOL      0.143285
     71 C23         0.6160   -4.0190   -0.3470 c         1 MOL      0.564647
     72 O13         0.7830   -2.8600   -0.0090 o         1 MOL     -0.589009
     73 C24         1.9770   -5.2620    1.3790 c3        1 MOL      0.238457
     74 C25         0.6880   -5.5560    2.1580 c3        1 MOL     -0.279787
     75 O14         2.8570   -6.3620    1.6180 oh        1 MOL     -0.679463
     76 H29         3.8170   -4.4130   -0.3250 hn        1 MOL      0.235102
     77 H30         1.4380   -6.0050   -0.5240 h1        1 MOL      0.051207
     78 H31         2.4120   -4.3630    1.8040 h1        1 MOL      0.007798
     79 H32         2.9910   -6.3960    2.5690 ho        1 MOL      0.407329
     80 H33         0.0840   -6.3630    1.7450 hc        1 MOL      0.090289
     81 H34         0.8800   -5.5730    3.2320 hc        1 MOL      0.090289
     82 H35         0.1460   -4.6140    2.0490 hc        1 MOL      0.090289
     83 N9         -0.4830   -4.4230   -0.9840 n         1 MOL     -0.318513
     84 C26        -1.7100   -3.6840   -0.9480 c3        1 MOL      0.025328
     85 C27        -2.4570   -3.8320    0.3550 c         1 MOL      0.102641
     86 O15        -2.5490   -4.8860    0.9580 o         1 MOL     -0.474985
     87 C28        -2.6020   -4.0870   -2.1590 c3        1 MOL      0.221252
     88 C29        -3.8980   -3.2200   -2.0920 c3        1 MOL      0.055903
     89 C30        -1.9090   -3.9830   -3.5430 c3        1 MOL     -0.337228
     90 C31        -4.7820   -3.2660   -3.2930 c3        1 MOL     -0.286459
     91 H36        -0.5440   -5.3630   -1.3450 hn        1 MOL      0.227727
     92 H37        -1.4660   -2.6210   -1.0610 h1        1 MOL      0.123389
     93 H38        -2.8940   -5.1070   -1.9100 hc        1 MOL     -0.027250
     94 H39        -3.6340   -2.2030   -1.7740 hc        1 MOL      0.038235
     95 H40        -4.5540   -3.6410   -1.3390 hc        1 MOL      0.038235
     96 H41        -2.5920   -4.2510   -4.3490 hc        1 MOL      0.085464
     97 H42        -1.3600   -3.0340   -3.6020 hc        1 MOL      0.085464
     98 H43        -1.1630   -4.7790   -3.6250 hc        1 MOL      0.085464
     99 H44        -4.2490   -2.7070   -4.0520 hc        1 MOL      0.048250
    100 H45        -5.0670   -4.3050   -3.4990 hc        1 MOL      0.048250
    101 H46        -5.7320   -2.7850   -3.0620 hc        1 MOL      0.048250
    102 N10        -2.9420   -2.7310    0.8730 n         1 MOL     -0.007272
    103 C32        -3.5660   -2.6810    2.1910 c3        1 MOL     -0.040691
    104 C33        -4.9290   -1.9980    2.2360 c         1 MOL      0.444864
    105 O16        -5.6550   -2.0740    3.2420 o         1 MOL     -0.556155
    106 C34        -2.6770   -1.9300    3.1880 c3        1 MOL      0.035343
    107 C35        -1.2160   -2.4020    3.1910 c         1 MOL      0.737448
    108 O17        -0.9280   -3.2290    4.0920 o         1 MOL     -0.718118
    109 O18        -0.4890   -1.8640    2.4190 o         1 MOL     -0.718118
    110 H47        -2.7150   -1.8680    0.3920 hn        1 MOL      0.172267
    111 H48        -3.6600   -3.6700    2.6370 h1        1 MOL      0.103466
    112 H49        -3.0730   -2.0930    4.1990 hc        1 MOL     -0.005491
    113 H50        -2.6640   -0.8400    3.1270 hc        1 MOL     -0.005491
    114 N11        -5.2890   -1.3100    1.1870 n         1 MOL     -0.562510
    115 C36        -6.4030   -0.4470    1.1710 c3        1 MOL      0.520268
    116 C37        -6.0540    0.8150    0.4720 c         1 MOL      0.186636
    117 O19        -6.6110    1.0650   -0.5900 o         1 MOL     -0.434517
    118 C38        -7.5870   -1.3000    0.6210 c3        1 MOL     -0.324117
    119 C39        -8.9900   -0.7020    0.5330 ca        1 MOL      0.155077
    120 C40        -9.7570   -0.8130   -0.6580 ca        1 MOL     -0.225932
    121 C41        -9.4090    0.0790    1.6360 ca        1 MOL     -0.225932
    122 C42       -11.0030   -0.1620   -0.7250 ca        1 MOL     -0.021111
    123 C43       -10.7020    0.5940    1.5670 ca        1 MOL     -0.021111
    124 C44       -11.5600    0.3950    0.4210 ca        1 MOL     -0.243719
    125 H51        -4.6450   -1.1930    0.4140 hn        1 MOL      0.188511
    126 H52        -6.6890   -0.1120    2.1680 h1        1 MOL     -0.015629
    127 H53        -7.7130   -2.2260    1.1810 hc        1 MOL      0.110295
    128 H54        -7.1770   -1.4980   -0.3700 hc        1 MOL      0.110295
    129 H55        -9.3510   -1.3980   -1.4730 ha        1 MOL      0.138846
    130 H56        -8.8680    0.2210    2.5460 ha        1 MOL      0.138846
    131 H57       -11.6140   -0.3000   -1.5990 ha        1 MOL      0.077843
    132 H58       -11.0790    1.0950    2.4420 ha        1 MOL      0.077843
    133 H59       -12.5920    0.7020    0.3980 ha        1 MOL      0.124101
    134 N12        -5.2400    1.6970    1.0610 n         1 MOL      0.005155
    135 C45        -4.9390    3.0310    0.5090 c3        1 MOL     -0.139231
    136 C46        -4.7130    3.1960   -1.0030 c         1 MOL      0.268488
    137 O20        -5.1390    4.2340   -1.5170 o         1 MOL     -0.506029
    138 C47        -3.7210    3.6250    1.2640 c3        1 MOL      0.164380
    139 C48        -3.9190    2.9440    2.6000 c3        1 MOL     -0.263812
    140 C49        -4.4080    1.5500    2.3060 c3        1 MOL     -0.100134
    141 H60        -5.8660    3.5230    0.8290 h1        1 MOL      0.093964
    142 H61        -2.7890    3.3770    0.7580 hc        1 MOL      0.006472
    143 H62        -3.8210    4.7020    1.4200 hc        1 MOL      0.006472
    144 H63        -2.9660    2.9550    3.1300 hc        1 MOL      0.097000
    145 H64        -4.8020    3.4060    3.0540 hc        1 MOL      0.097000
    146 H65        -3.5580    0.8870    2.1590 h1        1 MOL      0.096247
    147 H66        -5.1240    1.1750    3.0440 h1        1 MOL      0.096247
    148 N13        -4.0990    2.2550   -1.6570 n         1 MOL     -0.029333
    149 C50        -3.7340    2.2840   -3.1020 c3        1 MOL     -0.338345
    150 C51        -5.0640    2.3640   -3.9350 c         1 MOL      0.548794
    151 O21        -5.1700    3.1650   -4.8430 o         1 MOL     -0.550806
    152 C52        -2.9750    1.0230   -3.4860 c3        1 MOL      0.067030
    153 C53        -1.7020    0.7670   -2.7250 c3        1 MOL     -0.076289
    154 C54        -1.7480    0.0830   -1.3450 c         1 MOL      0.578444
    155 O22        -0.6630   -0.3080   -0.8500 o         1 MOL     -0.718980
    156 O23        -2.7680    0.0980   -0.6610 o         1 MOL     -0.718980
    157 H67        -3.8740    1.4750   -1.0690 hn        1 MOL      0.301569
    158 H68        -3.1230    3.1520   -3.3410 h1        1 MOL      0.152981
    159 H69        -2.6650    1.0710   -4.5310 hc        1 MOL      0.001249
    160 H70        -3.6770    0.2130   -3.3050 hc        1 MOL      0.001249
    161 H71        -1.1660    1.7140   -2.6710 hc        1 MOL      0.049655
    162 H72        -1.1340    0.0830   -3.3500 hc        1 MOL      0.049655
    163 N14        -6.0390    1.5300   -3.6160 n         1 MOL     -0.209435
    164 C55        -7.3210    1.4740   -4.3400 c3        1 MOL     -0.345881
    165 H73        -7.8500    0.5600   -4.0710 h1        1 MOL      0.128065
    166 H74        -7.9280    2.3380   -4.0710 h1        1 MOL      0.128065
    167 H75        -7.1330    1.4820   -5.4140 h1        1 MOL      0.128065
    168 H76        -5.8890    0.9920   -2.7780 hn        1 MOL      0.217882
    169 Ca1         1.1160   -0.4180    1.0040 Ca        1 MOL      1.664711
    170 O24         1.3330    2.0660    0.1350 oh        1 MOL     -0.846818
    171 H77         2.0570    2.6030   -0.1740 ho        1 MOL      0.410056
    172 H78         0.7020    2.6990    0.4870 ho        1 MOL      0.410056
    173 O25         2.9210   -0.5840   -1.0600 oh        1 MOL     -0.846818
    174 H79         3.2590    0.1910   -1.5090 ho        1 MOL      0.410056
    175 H80         3.6090   -1.2400   -1.1520 ho        1 MOL      0.410056
    176 O26        -1.0250    1.0520    1.6580 oh        1 MOL     -0.846818
    177 H81        -0.8960    2.0040    1.6480 ho        1 MOL      0.410056
    178 H82        -1.6440    0.8860    0.9400 ho        1 MOL      0.410056
@<TRIPOS>BOND
     1    1    2 1   
     2    1    4 1   
     3    1    5 1   
     4    1    6 1   
     5    2    3 2   
     6    2    7 1   
     7    7    8 1   
     8    7   15 1   
     9    8    9 1   
    10    8   11 1   
    11    8   16 1   
    12    9   10 2   
    13    9   19 1   
    14   11   12 1   
    15   11   17 1   
    16   11   18 1   
    17   12   13 1   
    18   12   14 1   
    19   19   20 1   
    20   19   24 1   
    21   20   21 1   
    22   20   23 1   
    23   20   25 1   
    24   21   22 2   
    25   21   29 1   
    26   23   26 1   
    27   23   27 1   
    28   23   28 1   
    29   29   30 1   
    30   29   37 1   
    31   30   31 1   
    32   30   33 1   
    33   30   38 1   
    34   31   32 2   
    35   31   41 1   
    36   33   34 1   
    37   33   39 1   
    38   33   40 1   
    39   34   35 1   
    40   34   36 1   
    41   41   42 1   
    42   41   45 1   
    43   42   43 1   
    44   42   46 1   
    45   42   47 1   
    46   43   44 2   
    47   43   48 1   
    48   48   49 1   
    49   48   56 1   
    50   49   50 1   
    51   49   52 1   
    52   49   57 1   
    53   50   51 2   
    54   50   62 1   
    55   52   53 1   
    56   52   58 1   
    57   52   59 1   
    58   53   54 1   
    59   53   55 2   
    60   54   60 1   
    61   54   61 1   
    62   62   63 1   
    63   62   66 1   
    64   63   64 1   
    65   63   67 1   
    66   63   68 1   
    67   64   65 2   
    68   64   69 1   
    69   69   70 1   
    70   69   76 1   
    71   70   71 1   
    72   70   73 1   
    73   70   77 1   
    74   71   72 2   
    75   71   83 1   
    76   73   74 1   
    77   73   75 1   
    78   73   78 1   
    79   74   80 1   
    80   74   81 1   
    81   74   82 1   
    82   75   79 1   
    83   83   84 1   
    84   83   91 1   
    85   84   85 1   
    86   84   87 1   
    87   84   92 1   
    88   85   86 2   
    89   85  102 1   
    90   87   88 1   
    91   87   89 1   
    92   87   93 1   
    93   88   90 1   
    94   88   94 1   
    95   88   95 1   
    96   89   96 1   
    97   89   97 1   
    98   89   98 1   
    99   90   99 1   
   100   90  100 1   
   101   90  101 1   
   102  102  103 1   
   103  102  110 1   
   104  103  104 1   
   105  103  106 1   
   106  103  111 1   
   107  104  105 2   
   108  104  114 1   
   109  106  107 1   
   110  106  112 1   
   111  106  113 1   
   112  107  108 1   
   113  107  109 1   
   114  114  115 1   
   115  114  125 1   
   116  115  116 1   
   117  115  118 1   
   118  115  126 1   
   119  116  117 2   
   120  116  134 1   
   121  118  119 1   
   122  118  127 1   
   123  118  128 1   
   124  119  120 ar  
   125  119  121 ar  
   126  120  122 ar  
   127  120  129 1   
   128  121  123 ar  
   129  121  130 1   
   130  122  124 ar  
   131  122  131 1   
   132  123  124 ar  
   133  123  132 1   
   134  124  133 1   
   135  134  135 1   
   136  134  140 1   
   137  135  136 1   
   138  135  138 1   
   139  135  141 1   
   140  136  137 2   
   141  136  148 1   
   142  138  139 1   
   143  138  142 1   
   144  138  143 1   
   145  139  140 1   
   146  139  144 1   
   147  139  145 1   
   148  140  146 1   
   149  140  147 1   
   150  148  149 1   
   151  148  157 1   
   152  149  150 1   
   153  149  152 1   
   154  149  158 1   
   155  150  151 2   
   156  150  163 1   
   157  152  153 1   
   158  152  159 1   
   159  152  160 1   
   160  153  154 1   
   161  153  161 1   
   162  153  162 1   
   163  154  155 1   
   164  154  156 1   
   165  163  164 1   
   166  163  168 1   
   167  164  165 1   
   168  164  166 1   
   169  164  167 1   
   170  170  171 1   
   171  170  172 1   
   172  173  174 1   
   173  173  175 1   
   174  176  177 1   
   175  176  178 1   
@<TRIPOS>SUBSTRUCTURE
     1 MOL         1 TEMP              0 ****  ****    0 ROOT
