@<TRIPOS>MOLECULE
MOL
  192   187     1     0     0
SMALL
resp


@<TRIPOS>ATOM
      1 C1          9.3930    1.3560    1.2800 c3        1 MOL     -0.753947
      2 C2          8.3140    0.7650    0.3510 c         1 MOL      0.855275
      3 O1          7.1480    0.7650    0.6940 o         1 MOL     -0.712136
      4 H1          9.6890    0.6070    2.0150 hc        1 MOL      0.189508
      5 H2         10.2620    1.6480    0.6900 hc        1 MOL      0.189508
      6 H3          8.9920    2.2300    1.7940 hc        1 MOL      0.189508
      7 N1          8.7110    0.4060   -0.8740 n         1 MOL     -0.512559
      8 C3          7.9550   -0.2120   -1.9080 c3        1 MOL      0.006429
      9 C4          7.2380   -1.5470   -1.5990 c         1 MOL      0.405807
     10 O2          7.0150   -2.2810   -2.5820 o         1 MOL     -0.442508
     11 C5          8.8170   -0.3440   -3.2030 c3        1 MOL     -0.193441
     12 C6         10.1230   -1.1290   -3.1130 c         1 MOL      0.717208
     13 O3         10.3660   -1.8380   -2.1000 o         1 MOL     -0.665769
     14 O4         10.9240   -1.1230   -4.0980 o         1 MOL     -0.665769
     15 H4          9.7200    0.4350   -1.0130 hn        1 MOL      0.266520
     16 H5          7.0840    0.3810   -2.1730 h1        1 MOL      0.106051
     17 H6          9.0390    0.6670   -3.5460 hc        1 MOL      0.067418
     18 H7          8.2130   -0.7430   -4.0130 hc        1 MOL      0.067418
     19 N2          6.8720   -1.7710   -0.3120 n         1 MOL     -0.282815
     20 C7          6.4040   -3.0740    0.1990 c3        1 MOL     -0.013855
     21 C8          4.9420   -3.3670   -0.2230 c         1 MOL      0.476255
     22 O5          4.7120   -4.4440   -0.7250 o         1 MOL     -0.542989
     23 C9          6.6860   -3.2740    1.6940 c3        1 MOL     -0.049044
     24 C10         8.1820   -3.2610    2.0610 c3        1 MOL      0.069355
     25 C11         8.3770   -3.2050    3.5700 c3        1 MOL     -0.168258
     26 C12         9.8740   -3.1200    3.8560 c3        1 MOL      0.132876
     27 N3         10.1670   -3.0470    5.2760 n4        1 MOL     -0.158581
     28 H8          6.9810   -0.9740    0.2940 hn        1 MOL      0.277990
     29 H9          7.0400   -3.8300   -0.2650 h1        1 MOL      0.092722
     30 H10         6.3140   -4.2650    1.9760 hc        1 MOL      0.039758
     31 H11         6.1980   -2.4900    2.2590 hc        1 MOL      0.039758
     32 H12         8.6260   -2.4010    1.5550 hc        1 MOL      0.013039
     33 H13         8.6910   -4.1650    1.7300 hc        1 MOL      0.013039
     34 H14         7.8630   -4.1050    3.9340 hc        1 MOL      0.047096
     35 H15         7.8620   -2.3370    3.9870 hc        1 MOL      0.047096
     36 H16        10.3220   -2.2360    3.3900 hx        1 MOL      0.049881
     37 H17        10.4360   -3.9700    3.4800 hx        1 MOL      0.049881
     38 H18         9.8550   -3.8940    5.7510 hn        1 MOL      0.220720
     39 H19        11.1400   -2.9860    5.5230 hn        1 MOL      0.220720
     40 H20         9.6630   -2.3130    5.7500 hn        1 MOL      0.220720
     41 N4          3.9920   -2.4880   -0.1410 n         1 MOL     -0.357062
     42 C13         3.9490   -1.2050    0.6070 c3        1 MOL      0.002711
     43 C14         4.0250    0.0690   -0.2280 c         1 MOL      0.336057
     44 O6          4.0670   -0.0650   -1.4540 o         1 MOL     -0.465555
     45 C15         2.8950   -1.2570    1.6780 c3        1 MOL     -0.000171
     46 C16         1.4490   -1.4570    1.2650 c         1 MOL      0.578759
     47 O7          0.8890   -0.4330    0.8600 o         1 MOL     -0.622290
     48 O8          0.9790   -2.5920    1.4800 o         1 MOL     -0.622290
     49 H21         3.1560   -2.8450   -0.5990 hn        1 MOL      0.315779
     50 H22         4.8880   -1.0190    1.1230 h1        1 MOL      0.075711
     51 H23         2.9630   -0.2980    2.1780 hc        1 MOL     -0.038397
     52 H24         3.2490   -1.9630    2.4330 hc        1 MOL     -0.038397
     53 N5          4.1000    1.1750    0.4550 n         1 MOL     -0.061565
     54 C17         3.9980    2.5250   -0.0590 c3        1 MOL     -0.416992
     55 C18         2.7130    2.9220   -0.7930 c         1 MOL      0.229984
     56 O9          1.6120    2.3050   -0.6130 o         1 MOL     -0.215886
     57 H25         4.0690    1.0290    1.4570 hn        1 MOL      0.234173
     58 H26         4.7350    2.5730   -0.8540 h1        1 MOL      0.192755
     59 H27         4.1290    3.2710    0.7300 h1        1 MOL      0.192755
     60 N6          2.7450    3.8460   -1.7810 n         1 MOL     -0.174894
     61 C19         1.6660    4.5440   -2.4650 c3        1 MOL      0.065486
     62 C20         1.7940    6.0570   -2.6060 c         1 MOL      0.554846
     63 O10         2.9320    6.5550   -2.7400 o         1 MOL     -0.554209
     64 C21         1.3720    3.9440   -3.8190 c3        1 MOL     -0.359955
     65 C22         0.9360    2.5330   -3.5590 c         1 MOL      0.663919
     66 O11        -0.1250    2.3290   -2.9010 o         1 MOL     -0.641387
     67 O12         1.5340    1.5850   -4.0650 o         1 MOL     -0.641387
     68 H28         3.6870    4.1470   -1.9810 hn        1 MOL      0.227735
     69 H29         0.7520    4.3410   -1.8990 h1        1 MOL     -0.012823
     70 H30         2.2840    3.9890   -4.4100 hc        1 MOL      0.114293
     71 H31         0.6530    4.6250   -4.2760 hc        1 MOL      0.114293
     72 N7          0.7740    6.9280   -2.5140 n         1 MOL     -0.495726
     73 C23        -0.6260    6.6560   -2.2910 c3        1 MOL      0.067090
     74 C24        -1.0440    6.0550   -0.9810 c         1 MOL      0.618122
     75 O13        -0.3030    6.0650   -0.0150 o         1 MOL     -0.495316
     76 H32         0.9650    7.9130   -2.5900 hn        1 MOL      0.326751
     77 H33        -1.0190    5.9450   -3.0280 h1        1 MOL      0.033426
     78 H34        -1.2780    7.5220   -2.4330 h1        1 MOL      0.033426
     79 N8         -2.2780    5.4690   -0.9910 n         1 MOL     -0.635858
     80 C25        -2.9700    4.8510    0.1270 c3        1 MOL     -0.013935
     81 C26        -2.0770    3.7930    0.7800 c         1 MOL      0.621702
     82 O14        -1.4020    3.0580    0.1220 o         1 MOL     -0.687760
     83 C27        -4.3030    4.2410   -0.3930 c3        1 MOL      0.626796
     84 C28        -5.2830    5.3910   -0.4760 c3        1 MOL     -0.505736
     85 O15        -4.8140    3.2210    0.3920 oh        1 MOL     -0.695095
     86 H35        -2.8070    5.5480   -1.8460 hn        1 MOL      0.303492
     87 H36        -3.1680    5.5410    0.9590 h1        1 MOL      0.076191
     88 H37        -4.1330    3.7670   -1.3560 h1        1 MOL     -0.058220
     89 H38        -5.2330    2.5900   -0.1910 ho        1 MOL      0.411046
     90 H39        -5.8650    5.1700   -1.3760 hc        1 MOL      0.118362
     91 H40        -5.8620    5.3520    0.4430 hc        1 MOL      0.118362
     92 H41        -4.7870    6.3560   -0.5100 hc        1 MOL      0.118362
     93 N9         -1.9750    3.7100    2.1370 n         1 MOL     -0.569315
     94 C29        -1.4170    2.5950    2.8990 c3        1 MOL      0.116802
     95 C30        -2.0540    1.1740    2.6730 c         1 MOL      0.602609
     96 O16        -1.9110    0.5640    1.6320 o         1 MOL     -0.506841
     97 C31         0.1050    2.4420    2.7450 c3        1 MOL      0.831631
     98 C32         0.8750    3.7560    2.8520 c3        1 MOL     -0.263132
     99 C33         0.6180    1.5230    3.8360 c3        1 MOL     -0.311373
    100 C34         0.7490    4.4740    4.1670 c3        1 MOL     -0.121002
    101 H42        -2.3030    4.5260    2.6290 hn        1 MOL      0.295528
    102 H43        -1.7350    2.9140    3.8990 h1        1 MOL     -0.004624
    103 H44         0.3940    1.9920    1.7890 hc        1 MOL     -0.377036
    104 H45         0.5700    4.3780    2.0130 hc        1 MOL      0.087060
    105 H46         1.9450    3.5200    2.7770 hc        1 MOL      0.087060
    106 H47         0.1870    1.8290    4.7880 hc        1 MOL      0.041012
    107 H48         0.2730    0.5060    3.6490 hc        1 MOL      0.041012
    108 H49         1.6880    1.6680    3.7060 hc        1 MOL      0.041012
    109 H50        -0.3090    4.6830    4.3380 hc        1 MOL      0.018532
    110 H51         1.0680    3.8510    5.0030 hc        1 MOL      0.018532
    111 H52         1.3070    5.4180    4.1890 hc        1 MOL      0.018532
    112 N10        -2.5840    0.5850    3.7280 n         1 MOL     -0.758162
    113 C35        -2.6300   -0.8690    3.9940 c3        1 MOL     -0.208413
    114 C36        -3.9280   -1.4770    3.6310 c         1 MOL      0.589397
    115 O17        -4.2730   -2.5760    4.1060 o         1 MOL     -0.579183
    116 C37        -2.3880   -1.0900    5.5440 c3        1 MOL      0.474960
    117 C38        -3.4850   -0.5210    6.5150 c3        1 MOL     -0.249368
    118 O18        -1.2020   -0.3620    5.8210 oh        1 MOL     -0.629689
    119 H53        -2.5680    1.1990    4.5340 hn        1 MOL      0.375502
    120 H54        -1.8200   -1.2620    3.3810 h1        1 MOL      0.162547
    121 H55        -2.2130   -2.1500    5.7280 h1        1 MOL      0.006414
    122 H56        -0.5180   -0.8370    5.3540 ho        1 MOL      0.384157
    123 H57        -3.1050   -0.8160    7.4910 hc        1 MOL      0.076699
    124 H58        -3.6680    0.5500    6.4550 hc        1 MOL      0.076699
    125 H59        -4.4130   -1.0880    6.4740 hc        1 MOL      0.076699
    126 N11        -4.8450   -0.7310    2.9760 n         1 MOL     -0.227236
    127 C39        -6.1310   -1.2540    2.4690 c3        1 MOL     -0.212430
    128 C40        -6.1340   -1.3110    0.9440 c         1 MOL      0.566173
    129 O19        -5.5770   -0.4490    0.3200 o         1 MOL     -0.498162
    130 C41        -7.3090   -0.4290    2.9860 c3        1 MOL      0.367761
    131 C42        -7.4930   -0.4880    4.4600 c3        1 MOL     -0.363307
    132 O20        -7.2190    0.9310    2.6230 oh        1 MOL     -0.622026
    133 H60        -4.6360    0.2420    2.8160 hn        1 MOL      0.323525
    134 H61        -6.3840   -2.2320    2.8620 h1        1 MOL      0.120803
    135 H62        -8.2600   -0.7750    2.5650 h1        1 MOL      0.000942
    136 H63        -8.1070    1.2930    2.5580 ho        1 MOL      0.404565
    137 H64        -6.8670    0.2250    5.0020 hc        1 MOL      0.093371
    138 H65        -8.5710   -0.3420    4.5580 hc        1 MOL      0.093371
    139 H66        -7.5060   -1.5090    4.8350 hc        1 MOL      0.093371
    140 N12        -6.7540   -2.2520    0.3400 n         1 MOL     -0.405602
    141 C43        -6.7580   -2.5980   -1.0630 c3        1 MOL      0.162465
    142 C44        -5.3620   -2.4830   -1.6890 c         1 MOL      0.362504
    143 O21        -5.1790   -1.7790   -2.7110 o         1 MOL     -0.538266
    144 C45        -7.9790   -1.8310   -1.7600 c3        1 MOL     -0.103274
    145 C46        -9.2810   -1.9940   -0.9210 c3        1 MOL     -0.038278
    146 C47       -10.5790   -1.4780   -1.5540 c3        1 MOL      0.020028
    147 C48       -10.7270   -1.8780   -3.0030 c3        1 MOL      0.137023
    148 N13       -11.8730   -1.1750   -3.5650 n4        1 MOL     -0.325989
    149 H67        -7.2300   -2.9320    0.9070 hn        1 MOL      0.213746
    150 H68        -7.0530   -3.6350   -1.2130 h1        1 MOL      0.048851
    151 H69        -8.1400   -2.3590   -2.6910 hc        1 MOL      0.046940
    152 H70        -7.7130   -0.7840   -1.9150 hc        1 MOL      0.046940
    153 H71        -9.1470   -1.4470    0.0110 hc        1 MOL      0.030144
    154 H72        -9.4230   -3.0720   -0.8560 hc        1 MOL      0.030144
    155 H73       -10.5030   -0.3930   -1.4960 hc        1 MOL      0.007143
    156 H74       -11.4020   -1.8500   -0.9480 hc        1 MOL      0.007143
    157 H75       -10.7600   -2.9690   -3.0610 hx        1 MOL      0.054000
    158 H76        -9.9020   -1.5700   -3.6440 hx        1 MOL      0.054000
    159 H77       -12.1920   -1.6240   -4.4150 hn        1 MOL      0.230275
    160 H78       -12.6830   -1.1400   -2.9640 hn        1 MOL      0.230275
    161 H79       -11.5440   -0.2850   -3.9080 hn        1 MOL      0.230275
    162 N14        -4.3540   -3.1260   -1.1120 n         1 MOL     -0.377124
    163 C49        -3.0250   -3.2070   -1.7100 c3        1 MOL      0.443962
    164 C50        -1.9560   -2.6120   -0.8310 c         1 MOL      0.146584
    165 O22        -1.5530   -1.5000   -1.1070 o         1 MOL     -0.503087
    166 C51        -2.6840   -4.5260   -2.3450 c3        1 MOL     -0.065237
    167 C52        -3.4960   -4.8780   -3.6280 c3        1 MOL     -0.542775
    168 C53        -3.3030   -6.3720   -4.0820 c         1 MOL      0.781482
    169 O23        -2.4870   -6.6910   -4.9610 o         1 MOL     -0.623960
    170 O24        -3.9310   -7.2630   -3.5420 o         1 MOL     -0.623960
    171 H80        -4.4340   -3.7080   -0.2920 hn        1 MOL      0.244430
    172 H81        -2.9990   -2.4600   -2.5020 h1        1 MOL      0.052765
    173 H82        -2.9770   -5.2950   -1.6400 hc        1 MOL      0.072668
    174 H83        -1.6250   -4.6180   -2.5500 hc        1 MOL      0.072668
    175 H84        -3.0670   -4.3040   -4.4410 hc        1 MOL      0.130454
    176 H85        -4.5310   -4.5320   -3.6270 hc        1 MOL      0.130454
    177 N15        -1.3360   -3.3090    0.1150 n         1 MOL     -0.233730
    178 C54        -1.7320   -4.5350    0.7260 c3        1 MOL      0.002837
    179 H86        -1.9470   -4.3620    1.7810 h1        1 MOL      0.022187
    180 H87        -2.6270   -4.9160    0.2320 h1        1 MOL      0.022187
    181 H88        -0.9280   -5.2650    0.6350 h1        1 MOL      0.022187
    182 H89        -0.5380   -2.8490    0.5300 hn        1 MOL      0.291183
    183 Ca1        -0.6040    0.8210   -0.8450 Ca        1 MOL      1.665696
    184 O25        -1.5640    0.0790   -3.5410 oh        1 MOL     -0.802333
    185 H90        -1.0050    0.3180   -4.2850 ho        1 MOL      0.386383
    186 H91        -2.3750    0.5650   -3.6940 ho        1 MOL      0.386383
    187 O26        -3.3150    0.7830   -1.0860 oh        1 MOL     -0.802333
    188 H92        -3.9380    0.2220   -0.6310 ho        1 MOL      0.386383
    189 H93        -3.7110    0.9240   -1.9540 ho        1 MOL      0.386383
    190 O27         1.3890   -0.3690   -2.2580 oh        1 MOL     -0.802333
    191 H94         1.3340    0.1860   -3.0290 ho        1 MOL      0.386383
    192 H95         2.3240   -0.5060   -2.1200 ho        1 MOL      0.386383
@<TRIPOS>BOND
     1    1    2 1   
     2    1    4 1   
     3    1    5 1   
     4    1    6 1   
     5    2    3 2   
     6    2    7 1   
     7    7    8 1   
     8    7   15 1   
     9    8    9 1   
    10    8   11 1   
    11    8   16 1   
    12    9   10 2   
    13    9   19 1   
    14   11   12 1   
    15   11   17 1   
    16   11   18 1   
    17   12   13 1   
    18   12   14 1   
    19   19   20 1   
    20   19   28 1   
    21   20   21 1   
    22   20   23 1   
    23   20   29 1   
    24   21   22 2   
    25   21   41 1   
    26   23   24 1   
    27   23   30 1   
    28   23   31 1   
    29   24   25 1   
    30   24   32 1   
    31   24   33 1   
    32   25   26 1   
    33   25   34 1   
    34   25   35 1   
    35   26   27 1   
    36   26   36 1   
    37   26   37 1   
    38   27   38 1   
    39   27   39 1   
    40   27   40 1   
    41   41   42 1   
    42   41   49 1   
    43   42   43 1   
    44   42   45 1   
    45   42   50 1   
    46   43   44 2   
    47   43   53 1   
    48   45   46 1   
    49   45   51 1   
    50   45   52 1   
    51   46   47 1   
    52   46   48 1   
    53   53   54 1   
    54   53   57 1   
    55   54   55 1   
    56   54   58 1   
    57   54   59 1   
    58   55   56 2   
    59   55   60 1   
    60   60   61 1   
    61   60   68 1   
    62   61   62 1   
    63   61   64 1   
    64   61   69 1   
    65   62   63 2   
    66   62   72 1   
    67   64   65 1   
    68   64   70 1   
    69   64   71 1   
    70   65   66 1   
    71   65   67 1   
    72   72   73 1   
    73   72   76 1   
    74   73   74 1   
    75   73   77 1   
    76   73   78 1   
    77   74   75 2   
    78   74   79 1   
    79   79   80 1   
    80   79   86 1   
    81   80   81 1   
    82   80   83 1   
    83   80   87 1   
    84   81   82 2   
    85   81   93 1   
    86   83   84 1   
    87   83   85 1   
    88   83   88 1   
    89   84   90 1   
    90   84   91 1   
    91   84   92 1   
    92   85   89 1   
    93   93   94 1   
    94   93  101 1   
    95   94   95 1   
    96   94   97 1   
    97   94  102 1   
    98   95   96 2   
    99   95  112 1   
   100   97   98 1   
   101   97   99 1   
   102   97  103 1   
   103   98  100 1   
   104   98  104 1   
   105   98  105 1   
   106   99  106 1   
   107   99  107 1   
   108   99  108 1   
   109  100  109 1   
   110  100  110 1   
   111  100  111 1   
   112  112  113 1   
   113  112  119 1   
   114  113  114 1   
   115  113  116 1   
   116  113  120 1   
   117  114  115 2   
   118  114  126 1   
   119  116  117 1   
   120  116  118 1   
   121  116  121 1   
   122  117  123 1   
   123  117  124 1   
   124  117  125 1   
   125  118  122 1   
   126  126  127 1   
   127  126  133 1   
   128  127  128 1   
   129  127  130 1   
   130  127  134 1   
   131  128  129 2   
   132  128  140 1   
   133  130  131 1   
   134  130  132 1   
   135  130  135 1   
   136  131  137 1   
   137  131  138 1   
   138  131  139 1   
   139  132  136 1   
   140  140  141 1   
   141  140  149 1   
   142  141  142 1   
   143  141  144 1   
   144  141  150 1   
   145  142  143 2   
   146  142  162 1   
   147  144  145 1   
   148  144  151 1   
   149  144  152 1   
   150  145  146 1   
   151  145  153 1   
   152  145  154 1   
   153  146  147 1   
   154  146  155 1   
   155  146  156 1   
   156  147  148 1   
   157  147  157 1   
   158  147  158 1   
   159  148  159 1   
   160  148  160 1   
   161  148  161 1   
   162  162  163 1   
   163  162  171 1   
   164  163  164 1   
   165  163  166 1   
   166  163  172 1   
   167  164  165 2   
   168  164  177 1   
   169  166  167 1   
   170  166  173 1   
   171  166  174 1   
   172  167  168 1   
   173  167  175 1   
   174  167  176 1   
   175  168  169 1   
   176  168  170 1   
   177  177  178 1   
   178  177  182 1   
   179  178  179 1   
   180  178  180 1   
   181  178  181 1   
   182  184  185 1   
   183  184  186 1   
   184  187  188 1   
   185  187  189 1   
   186  190  191 1   
   187  190  192 1   
@<TRIPOS>SUBSTRUCTURE
     1 MOL         1 TEMP              0 ****  ****    0 ROOT
