@<TRIPOS>MOLECULE
MOL
  181   177     1     0     0
SMALL
resp


@<TRIPOS>ATOM
      1 C1        -10.4250    6.6100   -1.4190 c3        1 MOL     -0.318332
      2 C2         -9.6670    5.4090   -1.9460 c         1 MOL      0.723114
      3 O1         -8.9930    5.5430   -2.9710 o         1 MOL     -0.590515
      4 H1        -10.9070    7.1280   -2.2480 hc        1 MOL      0.077640
      5 H2        -11.1830    6.2790   -0.7080 hc        1 MOL      0.077640
      6 H3         -9.7310    7.2880   -0.9220 hc        1 MOL      0.077640
      7 N1         -9.6220    4.2250   -1.2730 n         1 MOL     -0.741981
      8 C3        -10.2560    3.8440   -0.0040 c3        1 MOL      0.315027
      9 C4        -10.9070    2.4870   -0.1030 c         1 MOL      0.413329
     10 O2        -11.3120    1.9580    0.9100 o         1 MOL     -0.548058
     11 C5         -9.3770    3.9780    1.1810 c3        1 MOL     -0.232584
     12 C6         -8.1040    3.1970    1.0190 c         1 MOL      0.806741
     13 O3         -7.7250    2.5180    0.0250 o         1 MOL     -0.778132
     14 O4         -7.2810    3.1890    1.9950 o         1 MOL     -0.778132
     15 H4         -8.8890    3.6220   -1.6220 hn        1 MOL      0.401919
     16 H5        -11.0740    4.5410    0.1990 h1        1 MOL      0.026333
     17 H6         -9.9100    3.7000    2.0920 hc        1 MOL      0.062255
     18 H7         -9.0680    5.0080    1.3430 hc        1 MOL      0.062255
     19 N2        -10.9370    1.8090   -1.2520 n         1 MOL     -0.501327
     20 C7        -11.5390    0.5060   -1.4250 c3        1 MOL      0.349854
     21 C8        -10.5330   -0.6870   -1.2220 c         1 MOL      0.213485
     22 O5        -10.8340   -1.8300   -1.5900 o         1 MOL     -0.506041
     23 C9        -12.1310    0.5170   -2.8500 c3        1 MOL     -0.223045
     24 H8        -10.4370    2.2120   -2.0350 hn        1 MOL      0.269873
     25 H9        -12.3620    0.3830   -0.7320 h1        1 MOL      0.045411
     26 H10       -12.8180   -0.3320   -2.8660 hc        1 MOL      0.054977
     27 H11       -12.8010    1.3710   -2.9560 hc        1 MOL      0.054977
     28 H12       -11.4700    0.5270   -3.7160 hc        1 MOL      0.054977
     29 N3         -9.3800   -0.4390   -0.5940 n         1 MOL     -0.035776
     30 C10        -8.4320   -1.4780   -0.0670 c3        1 MOL      0.006583
     31 C11        -7.8170   -1.0490    1.2610 c         1 MOL      0.321368
     32 O6         -7.5760    0.1260    1.5870 o         1 MOL     -0.452755
     33 C12        -7.2300   -1.7870   -0.9370 c3        1 MOL     -0.133158
     34 C13        -6.5650   -0.5780   -1.5090 c         1 MOL      0.783129
     35 O7         -6.8370   -0.2520   -2.6750 o         1 MOL     -0.706638
     36 O8         -5.6410   -0.0950   -0.8490 o         1 MOL     -0.706638
     37 H13        -9.2260    0.5350   -0.3480 hn        1 MOL      0.151113
     38 H14        -8.9790   -2.3940    0.1570 h1        1 MOL      0.041175
     39 H15        -7.6660   -2.3360   -1.7750 hc        1 MOL      0.026824
     40 H16        -6.4440   -2.3460   -0.4280 hc        1 MOL      0.026824
     41 N4         -7.4600   -2.0550    2.0570 n         1 MOL     -0.249692
     42 C14        -6.6670   -1.9580    3.2940 c3        1 MOL     -0.376812
     43 C15        -5.1530   -1.8200    3.1100 c         1 MOL      0.826509
     44 O9         -4.7930   -1.0170    2.3120 o         1 MOL     -0.574726
     45 H17        -7.6160   -2.9900    1.7350 hn        1 MOL      0.281538
     46 H18        -6.8620   -2.9290    3.7320 h1        1 MOL      0.131603
     47 H19        -6.9960   -1.2010    4.0160 h1        1 MOL      0.131603
     48 N5         -4.3270   -2.6530    3.7420 n         1 MOL     -0.684008
     49 C16        -2.8440   -2.6530    3.5920 c3        1 MOL      0.160505
     50 C17        -2.4040   -3.4210    2.2930 c         1 MOL      0.739755
     51 O10        -2.9510   -4.4310    1.9980 o         1 MOL     -0.550495
     52 C18        -2.1680   -3.1540    4.8550 c3        1 MOL     -0.333301
     53 C19        -2.4600   -2.2110    6.0100 c         1 MOL      0.731440
     54 N6         -2.8270   -2.6480    7.1960 n         1 MOL     -0.834277
     55 O11        -2.5970   -1.0430    5.8540 o         1 MOL     -0.546133
     56 H20        -4.6870   -3.3590    4.3810 hn        1 MOL      0.333187
     57 H21        -2.5510   -1.6090    3.4770 h1        1 MOL      0.013911
     58 H22        -1.0840   -3.0620    4.7540 hc        1 MOL      0.096765
     59 H23        -2.3700   -4.1830    5.1450 hc        1 MOL      0.096765
     60 H24        -2.8940   -3.6480    7.2780 hn        1 MOL      0.374247
     61 H25        -3.1190   -1.9420    7.8570 hn        1 MOL      0.374247
     62 N7         -1.3420   -2.9400    1.6150 n         1 MOL     -0.670297
     63 C20        -0.9490   -3.4820    0.3100 c3        1 MOL      0.033167
     64 C21        -1.7970   -2.8890   -0.8110 c         1 MOL      0.640516
     65 O12        -2.6190   -1.9200   -0.7100 o         1 MOL     -0.617343
     66 H26        -0.9100   -2.0620    1.8560 hn        1 MOL      0.370330
     67 H27        -1.0650   -4.5660    0.4410 h1        1 MOL      0.108139
     68 H28         0.0910   -3.2650    0.0760 h1        1 MOL      0.108139
     69 N8         -1.5760   -3.3720   -2.0440 n         1 MOL     -0.504370
     70 C22        -0.7060   -4.5540   -2.4010 c3        1 MOL     -0.144994
     71 C23         0.8200   -4.1010   -2.5350 c         1 MOL      0.361218
     72 O13         1.6880   -4.9520   -2.6010 o         1 MOL     -0.468799
     73 C24        -1.1870   -5.2280   -3.7570 c3        1 MOL      0.650097
     74 C25        -0.7260   -6.6480   -3.9760 c3        1 MOL     -0.293538
     75 O14        -2.6140   -5.2370   -4.0070 oh        1 MOL     -0.693763
     76 H29        -2.1190   -2.9090   -2.7450 hn        1 MOL      0.317128
     77 H30        -0.8450   -5.2740   -1.5900 h1        1 MOL      0.084901
     78 H31        -0.8700   -4.5920   -4.5780 h1        1 MOL     -0.072511
     79 H32        -2.8790   -4.4120   -4.4190 ho        1 MOL      0.395921
     80 H33        -1.0690   -6.9520   -4.9530 hc        1 MOL      0.066300
     81 H34         0.3680   -6.6170   -4.0050 hc        1 MOL      0.066300
     82 H35        -0.9980   -7.4220   -3.2500 hc        1 MOL      0.066300
     83 N9          1.0190   -2.7660   -2.4900 n         1 MOL     -0.400491
     84 C26         2.3660   -2.1240   -2.5500 c3        1 MOL      0.214901
     85 C27         2.5540   -1.0310   -1.4130 c         1 MOL      0.414676
     86 O15         1.6270   -0.2110   -1.2690 o         1 MOL     -0.597506
     87 C28         2.6160   -1.6390   -4.0000 c3        1 MOL     -0.129809
     88 C29         2.8220   -2.7080   -5.0450 c3        1 MOL     -0.056460
     89 C30         3.7240   -0.6170   -4.1070 c3        1 MOL     -0.179707
     90 C31         4.0730   -3.4370   -4.9630 c3        1 MOL     -0.128265
     91 H36         0.2220   -2.1590   -2.4420 hn        1 MOL      0.253198
     92 H37         3.1460   -2.8730   -2.3740 h1        1 MOL      0.180013
     93 H38         1.7050   -1.0690   -4.1790 hc        1 MOL      0.019870
     94 H39         2.7950   -2.3170   -6.0700 hc        1 MOL      0.032267
     95 H40         1.9850   -3.3960   -4.8930 hc        1 MOL      0.032267
     96 H41         3.7140   -0.2700   -5.1390 hc        1 MOL      0.089678
     97 H42         3.4770    0.2800   -3.5250 hc        1 MOL      0.089678
     98 H43         4.7340   -0.9590   -3.8480 hc        1 MOL      0.089678
     99 H44         4.9070   -2.8070   -5.2330 hc        1 MOL      0.033615
    100 H45         4.1600   -3.9020   -3.9710 hc        1 MOL      0.033615
    101 H46         3.9610   -4.2050   -5.7370 hc        1 MOL      0.033615
    102 N10         3.6110   -0.8590   -0.7030 n         1 MOL     -0.366337
    103 C32         4.9030   -1.5370   -0.7540 c3        1 MOL      0.230345
    104 C33         5.9800   -0.6310   -0.1290 c         1 MOL      0.457154
    105 O16         5.6980    0.5060    0.2330 o         1 MOL     -0.544811
    106 C34         4.8830   -2.9220   -0.1130 c3        1 MOL     -0.229031
    107 C35         4.3610   -2.8480    1.3420 c         1 MOL      0.680454
    108 O17         4.1160   -3.9190    1.9380 o         1 MOL     -0.704013
    109 O18         4.1790   -1.7840    1.9950 o         1 MOL     -0.704013
    110 H47         3.5340   -0.0850   -0.0580 hn        1 MOL      0.314407
    111 H48         5.1690   -1.7280   -1.8010 h1        1 MOL     -0.022126
    112 H49         5.8870   -3.3360   -0.1240 hc        1 MOL      0.006824
    113 H50         4.2020   -3.5890   -0.6480 hc        1 MOL      0.006824
    114 N11         7.2190   -1.1040    0.0390 n         1 MOL     -0.527972
    115 C36         8.3130   -0.4560    0.8110 c3        1 MOL      0.535967
    116 C37         9.6400   -0.2190    0.0070 c         1 MOL      0.154964
    117 O19        10.1300   -1.0970   -0.7620 o         1 MOL     -0.497753
    118 C38         8.6770   -1.3390    2.0030 c3        1 MOL     -0.357945
    119 C39         9.5420   -0.6470    3.0760 ca        1 MOL      0.286200
    120 C40        10.9610   -0.7610    3.0390 ca        1 MOL     -0.300484
    121 C41         8.8910   -0.0150    4.0720 ca        1 MOL     -0.300484
    122 C42        11.6980   -0.0050    3.9660 ca        1 MOL     -0.036414
    123 C43         9.6340    0.6180    5.1120 ca        1 MOL     -0.036414
    124 C44        11.0220    0.6150    5.0820 ca        1 MOL     -0.219085
    125 H51         7.3040   -2.0280   -0.3550 hn        1 MOL      0.285042
    126 H52         8.0280    0.5200    1.2070 h1        1 MOL     -0.001517
    127 H53         9.1380   -2.2670    1.6730 hc        1 MOL      0.106341
    128 H54         7.7840   -1.7000    2.5080 hc        1 MOL      0.106341
    129 H55        11.4790   -1.2450    2.2290 ha        1 MOL      0.171838
    130 H56         7.8290    0.1490    4.0920 ha        1 MOL      0.171838
    131 H57        12.7710    0.0580    3.8510 ha        1 MOL      0.095095
    132 H58         9.0520    1.0520    5.9140 ha        1 MOL      0.095095
    133 H59        11.5650    1.2020    5.8070 ha        1 MOL      0.113133
    134 N12        10.3710    0.8960    0.2560 n         1 MOL      0.021275
    135 C45        10.0380    2.1130    1.0270 c3        1 MOL      0.040750
    136 C46         8.7610    2.8200    0.6460 c         1 MOL      0.342099
    137 O20         8.2200    3.5860    1.4650 o         1 MOL     -0.567033
    138 C47        11.2480    3.1170    0.8110 c3        1 MOL     -0.096742
    139 C48        12.4240    2.2260    0.2940 c3        1 MOL     -0.085092
    140 C49        11.7580    0.9570   -0.2630 c3        1 MOL      0.004219
    141 H60        10.0110    1.8500    2.0820 h1        1 MOL      0.033228
    142 H61        10.9190    3.7770    0.0050 hc        1 MOL      0.066153
    143 H62        11.5100    3.6830    1.7090 hc        1 MOL      0.066153
    144 H63        12.9490    2.7470   -0.5020 hc        1 MOL      0.024726
    145 H64        13.1540    2.0550    1.0850 hc        1 MOL      0.024726
    146 H65        11.8320    1.0050   -1.3560 h1        1 MOL      0.043170
    147 H66        12.3480    0.0880    0.0400 h1        1 MOL      0.043170
    148 N13         8.4000    2.7340   -0.5400 n         1 MOL     -0.123407
    149 C50         7.3700    3.5870   -1.1170 c3        1 MOL      0.118227
    150 C51         7.7070    5.0880   -1.0090 c         1 MOL      0.401753
    151 O21         8.6210    5.4840   -1.7070 o         1 MOL     -0.573265
    152 C52         7.3370    3.2510   -2.6480 c3        1 MOL     -0.087976
    153 C53         7.1850    1.8120   -3.0440 c3        1 MOL     -0.014538
    154 C54         7.4640    1.6060   -4.5340 c         1 MOL      0.671200
    155 O22         8.1670    0.6150   -4.8790 o         1 MOL     -0.725331
    156 O23         6.8930    2.3270   -5.3830 o         1 MOL     -0.725331
    157 H67         9.0190    2.1880   -1.1160 hn        1 MOL      0.208945
    158 H68         6.4240    3.4330   -0.5960 h1        1 MOL      0.062670
    159 H69         8.3070    3.5580   -3.0540 hc        1 MOL      0.031634
    160 H70         6.5700    3.7820   -3.2150 hc        1 MOL      0.031634
    161 H71         6.2060    1.3800   -2.8160 hc        1 MOL     -0.056855
    162 H72         7.8670    1.1990   -2.4490 hc        1 MOL     -0.056855
    163 N14         7.0820    6.0010   -0.2610 n         1 MOL     -0.283061
    164 C55         5.9980    5.7950    0.6800 c3        1 MOL     -0.174602
    165 H73         6.3740    5.2740    1.5600 h1        1 MOL      0.080194
    166 H74         5.5860    6.7590    0.9770 h1        1 MOL      0.080194
    167 H75         5.2180    5.1960    0.2100 h1        1 MOL      0.080194
    168 H76         7.3590    6.9740   -0.2800 hn        1 MOL      0.261323
    169 Ca1        -5.3960    1.5860    1.0390 Ca        1 MOL      1.825683
    170 O24        -4.8070    2.6740   -1.3630 oh        1 MOL     -0.866952
    171 H77        -4.8880    2.3660   -2.2700 ho        1 MOL      0.417932
    172 H78        -4.0160    3.2120   -1.3600 ho        1 MOL      0.417932
    173 O25        -4.9270    1.5020    3.9030 oh        1 MOL     -0.866952
    174 H79        -3.9960    1.5450    4.1380 ho        1 MOL      0.417932
    175 H80        -5.3770    1.4180    4.7500 ho        1 MOL      0.417932
    176 O26        -2.8990    0.6300    0.6490 oh        1 MOL     -0.866952
    177 H81        -1.9490    0.7070    0.7550 ho        1 MOL      0.417932
    178 H82        -3.0250   -0.2340    0.2620 ho        1 MOL      0.417932
    179 O27        -4.7160    3.9920    1.8090 oh        1 MOL     -0.866952
    180 H83        -3.9150    4.3370    2.1900 ho        1 MOL      0.417932
    181 H84        -5.3790    4.6630    1.9930 ho        1 MOL      0.417932
@<TRIPOS>BOND
     1    1    2 1   
     2    1    4 1   
     3    1    5 1   
     4    1    6 1   
     5    2    3 2   
     6    2    7 1   
     7    7    8 1   
     8    7   15 1   
     9    8    9 1   
    10    8   11 1   
    11    8   16 1   
    12    9   10 2   
    13    9   19 1   
    14   11   12 1   
    15   11   17 1   
    16   11   18 1   
    17   12   13 1   
    18   12   14 1   
    19   19   20 1   
    20   19   24 1   
    21   20   21 1   
    22   20   23 1   
    23   20   25 1   
    24   21   22 2   
    25   21   29 1   
    26   23   26 1   
    27   23   27 1   
    28   23   28 1   
    29   29   30 1   
    30   29   37 1   
    31   30   31 1   
    32   30   33 1   
    33   30   38 1   
    34   31   32 2   
    35   31   41 1   
    36   33   34 1   
    37   33   39 1   
    38   33   40 1   
    39   34   35 1   
    40   34   36 1   
    41   41   42 1   
    42   41   45 1   
    43   42   43 1   
    44   42   46 1   
    45   42   47 1   
    46   43   44 2   
    47   43   48 1   
    48   48   49 1   
    49   48   56 1   
    50   49   50 1   
    51   49   52 1   
    52   49   57 1   
    53   50   51 2   
    54   50   62 1   
    55   52   53 1   
    56   52   58 1   
    57   52   59 1   
    58   53   54 1   
    59   53   55 2   
    60   54   60 1   
    61   54   61 1   
    62   62   63 1   
    63   62   66 1   
    64   63   64 1   
    65   63   67 1   
    66   63   68 1   
    67   64   65 2   
    68   64   69 1   
    69   69   70 1   
    70   69   76 1   
    71   70   71 1   
    72   70   73 1   
    73   70   77 1   
    74   71   72 2   
    75   71   83 1   
    76   73   74 1   
    77   73   75 1   
    78   73   78 1   
    79   74   80 1   
    80   74   81 1   
    81   74   82 1   
    82   75   79 1   
    83   83   84 1   
    84   83   91 1   
    85   84   85 1   
    86   84   87 1   
    87   84   92 1   
    88   85   86 2   
    89   85  102 1   
    90   87   88 1   
    91   87   89 1   
    92   87   93 1   
    93   88   90 1   
    94   88   94 1   
    95   88   95 1   
    96   89   96 1   
    97   89   97 1   
    98   89   98 1   
    99   90   99 1   
   100   90  100 1   
   101   90  101 1   
   102  102  103 1   
   103  102  110 1   
   104  103  104 1   
   105  103  106 1   
   106  103  111 1   
   107  104  105 2   
   108  104  114 1   
   109  106  107 1   
   110  106  112 1   
   111  106  113 1   
   112  107  108 1   
   113  107  109 1   
   114  114  115 1   
   115  114  125 1   
   116  115  116 1   
   117  115  118 1   
   118  115  126 1   
   119  116  117 2   
   120  116  134 1   
   121  118  119 1   
   122  118  127 1   
   123  118  128 1   
   124  119  120 ar  
   125  119  121 ar  
   126  120  122 ar  
   127  120  129 1   
   128  121  123 ar  
   129  121  130 1   
   130  122  124 ar  
   131  122  131 1   
   132  123  124 ar  
   133  123  132 1   
   134  124  133 1   
   135  134  135 1   
   136  134  140 1   
   137  135  136 1   
   138  135  138 1   
   139  135  141 1   
   140  136  137 2   
   141  136  148 1   
   142  138  139 1   
   143  138  142 1   
   144  138  143 1   
   145  139  140 1   
   146  139  144 1   
   147  139  145 1   
   148  140  146 1   
   149  140  147 1   
   150  148  149 1   
   151  148  157 1   
   152  149  150 1   
   153  149  152 1   
   154  149  158 1   
   155  150  151 2   
   156  150  163 1   
   157  152  153 1   
   158  152  159 1   
   159  152  160 1   
   160  153  154 1   
   161  153  161 1   
   162  153  162 1   
   163  154  155 1   
   164  154  156 1   
   165  163  164 1   
   166  163  168 1   
   167  164  165 1   
   168  164  166 1   
   169  164  167 1   
   170  170  171 1   
   171  170  172 1   
   172  173  174 1   
   173  173  175 1   
   174  176  177 1   
   175  176  178 1   
   176  179  180 1   
   177  179  181 1   
@<TRIPOS>SUBSTRUCTURE
     1 MOL         1 TEMP              0 ****  ****    0 ROOT
