@<TRIPOS>MOLECULE
MOL
  182   178     1     0     0
SMALL
resp


@<TRIPOS>ATOM
      1 C1          0.6670   -4.6640    6.3290 c3        1 MOL     -0.318863
      2 C2          0.5880   -4.1240    4.8320 c         1 MOL      0.694701
      3 O1         -0.4050   -3.6590    4.3440 o         1 MOL     -0.555741
      4 H1         -0.3390   -4.8700    6.6940 hc        1 MOL      0.090093
      5 H2          1.2570   -5.5800    6.3550 hc        1 MOL      0.090093
      6 H3          1.1350   -3.9120    6.9630 hc        1 MOL      0.090093
      7 N1          1.7580   -4.0670    4.1220 n         1 MOL     -0.583151
      8 C3          1.9440   -3.5010    2.7620 c3        1 MOL     -0.006592
      9 C4          2.0120   -4.6110    1.6370 c         1 MOL      0.697874
     10 O2          2.5320   -5.7140    1.8440 o         1 MOL     -0.576006
     11 C5          3.1740   -2.5620    2.6440 c3        1 MOL     -0.081485
     12 C6          3.2000   -1.6410    1.4780 c         1 MOL      0.717986
     13 O3          3.7210   -0.5070    1.5200 o         1 MOL     -0.720382
     14 O4          2.7840   -1.9540    0.3540 o         1 MOL     -0.720382
     15 H4          2.6060   -4.4850    4.4670 hn        1 MOL      0.308135
     16 H5          1.0520   -2.8780    2.6340 h1        1 MOL      0.051309
     17 H6          4.0430   -3.2120    2.6230 hc        1 MOL      0.032770
     18 H7          3.1160   -1.8700    3.4780 hc        1 MOL      0.032770
     19 N2          1.5490   -4.3120    0.4200 n         1 MOL     -0.581062
     20 C7          1.5730   -5.2440   -0.6930 c3        1 MOL     -0.004621
     21 C8          2.8310   -5.1520   -1.6140 c         1 MOL      0.566387
     22 O5          3.1010   -6.0110   -2.4090 o         1 MOL     -0.543473
     23 C9          0.1390   -5.3370   -1.3350 c3        1 MOL     -0.098865
     24 C10        -0.2300   -4.1230   -2.1980 c3        1 MOL      0.016451
     25 C11        -1.6320   -4.1200   -2.6790 c3        1 MOL     -0.022702
     26 C12        -1.5980   -2.9420   -3.7510 c3        1 MOL      0.104951
     27 N3         -2.8350   -2.8360   -4.6210 n4        1 MOL     -0.393961
     28 H8          1.3260   -3.3420    0.2100 hn        1 MOL      0.267540
     29 H9          1.6830   -6.2580   -0.3230 h1        1 MOL      0.130896
     30 H10        -0.5350   -5.5490   -0.5060 hc        1 MOL      0.052507
     31 H11         0.0750   -6.2460   -1.9330 hc        1 MOL      0.052507
     32 H12         0.4660   -4.0800   -3.0350 hc        1 MOL      0.032952
     33 H13         0.0220   -3.2280   -1.6190 hc        1 MOL      0.032952
     34 H14        -2.4030   -3.9640   -1.9200 hc        1 MOL      0.026449
     35 H15        -1.7780   -5.0590   -3.2110 hc        1 MOL      0.026449
     36 H16        -0.7470   -3.1070   -4.4030 hx        1 MOL      0.028013
     37 H17        -1.4910   -2.0380   -3.1520 hx        1 MOL      0.028013
     38 H18        -3.6060   -2.3800   -4.1450 hn        1 MOL      0.311923
     39 H19        -2.6100   -2.2400   -5.4040 hn        1 MOL      0.311923
     40 H20        -3.0280   -3.7820   -4.9360 hn        1 MOL      0.311923
     41 N4          3.6000   -4.0500   -1.3850 n         1 MOL     -0.468224
     42 C13         4.8270   -3.7610   -2.1710 c3        1 MOL      0.238951
     43 C14         6.0760   -3.4410   -1.2980 c         1 MOL      0.369076
     44 O6          7.1660   -3.9050   -1.6140 o         1 MOL     -0.512919
     45 C15         4.6730   -2.7450   -3.2930 c3        1 MOL     -0.596039
     46 C16         4.0090   -1.4390   -2.8170 c         1 MOL      0.960076
     47 O7          2.9380   -1.1050   -3.3280 o         1 MOL     -0.794429
     48 O8          4.5340   -0.7000   -1.9560 o         1 MOL     -0.794429
     49 H21         3.2380   -3.3180   -0.7750 hn        1 MOL      0.266185
     50 H22         5.0800   -4.7190   -2.6260 h1        1 MOL      0.084217
     51 H23         4.1330   -3.2560   -4.0830 hc        1 MOL      0.168624
     52 H24         5.6740   -2.4510   -3.6400 hc        1 MOL      0.168624
     53 N5          5.9340   -2.7030   -0.1870 n         1 MOL     -0.123308
     54 C17         7.0540   -2.3810    0.7740 c3        1 MOL     -0.094414
     55 C18         7.5340   -0.9100    0.7890 c         1 MOL      0.509395
     56 O9          8.4310   -0.5470    1.6140 o         1 MOL     -0.544114
     57 H25         5.0380   -2.3040    0.0310 hn        1 MOL      0.045645
     58 H26         7.9530   -2.9530    0.5100 h1        1 MOL      0.096026
     59 H27         6.7330   -2.5750    1.7980 h1        1 MOL      0.096026
     60 N6          6.9330   -0.0070   -0.0640 n         1 MOL     -0.205763
     61 C19         7.3740    1.3440   -0.1510 c3        1 MOL      0.006930
     62 C20         6.1180    2.2120   -0.2810 c         1 MOL      0.542784
     63 O10         4.9940    1.7300   -0.5060 o         1 MOL     -0.556329
     64 C21         8.3860    1.4390   -1.3380 c3        1 MOL     -0.437010
     65 C22         7.9270    0.9730   -2.6560 c         1 MOL      0.621992
     66 N7          6.6710    0.7870   -2.9310 n         1 MOL     -0.706809
     67 O11         8.6570    0.6510   -3.6210 o         1 MOL     -0.581979
     68 H28         6.1610   -0.3010   -0.6490 hn        1 MOL      0.229782
     69 H29         7.8170    1.6030    0.8150 h1        1 MOL      0.076610
     70 H30         9.1840    0.7460   -1.0800 hc        1 MOL      0.156231
     71 H31         8.8020    2.4370   -1.4960 hc        1 MOL      0.156231
     72 H32         5.9210    0.9520   -2.2700 hn        1 MOL      0.353382
     73 H33         6.4910    0.3160   -3.8050 hn        1 MOL      0.353382
     74 N8          6.4010    3.5280   -0.1470 n         1 MOL     -0.401675
     75 C23         5.3860    4.5810   -0.4290 c3        1 MOL     -0.176225
     76 C24         4.2940    4.6860    0.7520 c         1 MOL      0.629375
     77 O12         4.6410    4.6320    1.9070 o         1 MOL     -0.511165
     78 H34         7.3550    3.8110    0.0180 hn        1 MOL      0.337021
     79 H35         4.8930    4.2770   -1.3530 h1        1 MOL      0.106611
     80 H36         5.8720    5.5410   -0.5920 h1        1 MOL      0.106611
     81 N9          2.9870    4.7080    0.4510 n         1 MOL     -0.617713
     82 C25         1.8890    4.4770    1.4540 c3        1 MOL      0.581545
     83 C26         1.7250    2.9910    1.9020 c         1 MOL      0.272801
     84 O13         2.4930    2.1300    1.4610 o         1 MOL     -0.429356
     85 C27         0.5700    5.0580    0.8510 c3        1 MOL     -0.193743
     86 C28         0.7970    6.4110    0.1380 ca        1 MOL      0.077835
     87 C29         0.1630    6.6840   -1.1240 ca        1 MOL     -0.123666
     88 C30         1.5470    7.5050    0.6140 ca        1 MOL     -0.123666
     89 C31         0.4210    7.7960   -1.8950 ca        1 MOL     -0.291770
     90 C32         1.8390    8.6800   -0.1260 ca        1 MOL     -0.291770
     91 C33         1.2300    8.8350   -1.3990 ca        1 MOL      0.339883
     92 O14         1.5570    9.9600   -2.1670 oh        1 MOL     -0.446828
     93 H37         2.7710    4.8550   -0.5230 hn        1 MOL      0.239777
     94 H38         2.1060    4.9560    2.4150 h1        1 MOL     -0.015353
     95 H39        -0.1310    5.2680    1.6600 hc        1 MOL      0.030068
     96 H40         0.0810    4.3920    0.1490 hc        1 MOL      0.030068
     97 H41        -0.4850    5.9140   -1.5100 ha        1 MOL      0.098176
     98 H42         1.9640    7.3650    1.5970 ha        1 MOL      0.098176
     99 H43         0.0540    7.8340   -2.9100 ha        1 MOL      0.175980
    100 H44         2.4630    9.4270    0.3550 ha        1 MOL      0.175980
    101 H45         1.1410    9.9240   -3.0280 ho        1 MOL      0.339756
    102 N10         0.6960    2.6480    2.7190 n         1 MOL     -0.391648
    103 C34         0.2430    1.3900    3.2080 c3        1 MOL      0.034580
    104 C35        -0.0980    0.4640    2.0160 c         1 MOL      0.406307
    105 O15         0.8580   -0.1180    1.3780 o         1 MOL     -0.557231
    106 C36         1.2730    0.8170    4.2410 c3        1 MOL      0.262707
    107 C37         0.7050   -0.4930    4.9720 c3        1 MOL     -0.083137
    108 C38         1.8270    1.7650    5.3220 c3        1 MOL     -0.541923
    109 C39        -0.4340   -0.1860    6.0000 c3        1 MOL     -0.395302
    110 H46         0.1740    3.4430    3.0360 hn        1 MOL      0.231509
    111 H47        -0.6720    1.5900    3.7610 h1        1 MOL      0.092989
    112 H48         2.1630    0.5030    3.6960 hc        1 MOL      0.033528
    113 H49         1.5610   -0.9840    5.4250 hc        1 MOL      0.091943
    114 H50         0.3210   -1.1860    4.2240 hc        1 MOL      0.091943
    115 H51         1.0490    2.4520    5.6610 hc        1 MOL      0.142414
    116 H52         2.2780    1.1960    6.1360 hc        1 MOL      0.142414
    117 H53         2.6100    2.4170    4.9290 hc        1 MOL      0.142414
    118 H54         0.0510    0.4190    6.7550 hc        1 MOL      0.103769
    119 H55        -1.2150    0.2990    5.4100 hc        1 MOL      0.103769
    120 H56        -0.7810   -1.1130    6.4640 hc        1 MOL      0.103769
    121 N11        -1.3600    0.2030    1.7920 n         1 MOL     -0.300999
    122 C40        -1.9800   -0.4890    0.6340 c3        1 MOL     -0.061548
    123 C41        -3.4750   -0.1420    0.3970 c         1 MOL      0.534986
    124 O16        -4.2590   -0.1160    1.3550 o         1 MOL     -0.475848
    125 C42        -2.0050   -2.0810    0.7820 c3        1 MOL     -0.074284
    126 O17        -0.6750   -2.5070    0.8620 oh        1 MOL     -0.406191
    127 H57        -1.9860    0.8930    2.1990 hn        1 MOL      0.252787
    128 H58        -1.4030   -0.2520   -0.2630 h1        1 MOL      0.090083
    129 H59        -2.4550   -2.5940   -0.0650 h1        1 MOL      0.138551
    130 H60        -2.4740   -2.2860    1.7380 h1        1 MOL      0.138551
    131 H61        -0.0510   -1.7810    0.8750 ho        1 MOL      0.334737
    132 N12        -3.8470    0.0680   -0.9110 n         1 MOL     -0.565753
    133 C43        -5.1710   -0.1140   -1.5010 c3        1 MOL      0.390363
    134 C44        -5.3880   -1.5020   -2.1100 c         1 MOL      0.424186
    135 O18        -4.4590   -2.0490   -2.6780 o         1 MOL     -0.552272
    136 C45        -5.2370    1.0180   -2.5680 c3        1 MOL     -0.501299
    137 H62        -3.0940    0.0520   -1.5910 hn        1 MOL      0.258889
    138 H63        -5.9770    0.1230   -0.8040 h1        1 MOL      0.058377
    139 H64        -5.9820    0.6970   -3.2980 hc        1 MOL      0.125523
    140 H65        -5.6400    1.9500   -2.1840 hc        1 MOL      0.125523
    141 H66        -4.3160    1.1790   -3.1180 hc        1 MOL      0.125523
    142 N13        -6.5400   -2.1140   -1.9720 n         1 MOL     -0.408063
    143 C46        -7.8500   -1.7390   -1.4100 c3        1 MOL      0.168346
    144 C47        -8.6720   -0.7380   -2.2840 c         1 MOL      0.664654
    145 O19        -8.4100   -0.7170   -3.4260 o         1 MOL     -0.554730
    146 C48        -8.4720   -3.0810   -1.0910 c3        1 MOL     -0.047259
    147 H67        -6.4950   -3.0220   -2.4210 hn        1 MOL      0.252993
    148 H68        -7.5120   -1.3480   -0.4560 h1        1 MOL      0.015674
    149 H69        -8.9590   -3.5350   -1.9510 hc        1 MOL      0.036563
    150 H70        -7.8120   -3.7930   -0.5930 hc        1 MOL      0.036563
    151 H71        -9.2720   -3.0690   -0.3520 hc        1 MOL      0.036563
    152 N14        -9.6420   -0.0550   -1.6350 n         1 MOL     -0.676485
    153 C49       -10.1260   -0.1580   -0.2880 c3        1 MOL     -0.080255
    154 C50        -9.2030    0.5670    0.7140 c         1 MOL      0.468253
    155 O20        -8.7090   -0.0760    1.6150 o         1 MOL     -0.516054
    156 C51       -11.5570    0.4590   -0.3070 c3        1 MOL      0.114292
    157 C52       -12.4250    0.5210    0.9790 c3        1 MOL     -0.431996
    158 C53       -13.7240    1.3360    0.7020 c         1 MOL      0.715258
    159 O21       -13.6740    2.6030    0.5660 o         1 MOL     -0.671838
    160 O22       -14.7910    0.6920    0.5650 o         1 MOL     -0.671838
    161 H72       -10.2870    0.4660   -2.2090 hn        1 MOL      0.357469
    162 H73       -10.3370   -1.1990   -0.0420 h1        1 MOL      0.130940
    163 H74       -12.1090   -0.0950   -1.0540 hc        1 MOL      0.015080
    164 H75       -11.3850    1.4200   -0.7880 hc        1 MOL      0.015080
    165 H76       -12.0060    0.9790    1.8710 hc        1 MOL      0.117142
    166 H77       -12.7010   -0.5050    1.2280 hc        1 MOL      0.117142
    167 N15        -9.0260    1.8580    0.5160 n         1 MOL     -0.306574
    168 C54        -8.1720    2.6860    1.4060 c3        1 MOL     -0.220572
    169 H78        -7.9450    2.1260    2.3130 h1        1 MOL      0.114962
    170 H79        -7.2440    2.9360    0.8920 h1        1 MOL      0.114962
    171 H80        -8.7010    3.6020    1.6680 h1        1 MOL      0.114962
    172 H81        -9.5110    2.3470   -0.2260 hn        1 MOL      0.289175
    173 Ca1         2.5970    0.4500   -0.6210 Ca        1 MOL      1.758941
    174 O23         3.0050    2.3370   -2.4980 oh        1 MOL     -0.825323
    175 H82         3.8500    2.7100   -2.7660 ho        1 MOL      0.388402
    176 H83         2.3540    2.8360   -2.9830 ho        1 MOL      0.388402
    177 O24         0.5450   -0.5510   -2.2000 oh        1 MOL     -0.825323
    178 H84        -0.0450   -0.1290   -2.8250 ho        1 MOL      0.388402
    179 H85         1.1620   -1.0470   -2.7390 ho        1 MOL      0.388402
    180 O25         0.4250    2.2880   -1.0560 oh        1 MOL     -0.825323
    181 H86        -0.5070    2.3050   -0.8320 ho        1 MOL      0.388402
    182 H87         0.4830    2.8020   -1.8600 ho        1 MOL      0.388402
@<TRIPOS>BOND
     1    1    2 1   
     2    1    4 1   
     3    1    5 1   
     4    1    6 1   
     5    2    3 2   
     6    2    7 1   
     7    7    8 1   
     8    7   15 1   
     9    8    9 1   
    10    8   11 1   
    11    8   16 1   
    12    9   10 2   
    13    9   19 1   
    14   11   12 1   
    15   11   17 1   
    16   11   18 1   
    17   12   13 1   
    18   12   14 1   
    19   19   20 1   
    20   19   28 1   
    21   20   21 1   
    22   20   23 1   
    23   20   29 1   
    24   21   22 2   
    25   21   41 1   
    26   23   24 1   
    27   23   30 1   
    28   23   31 1   
    29   24   25 1   
    30   24   32 1   
    31   24   33 1   
    32   25   26 1   
    33   25   34 1   
    34   25   35 1   
    35   26   27 1   
    36   26   36 1   
    37   26   37 1   
    38   27   38 1   
    39   27   39 1   
    40   27   40 1   
    41   41   42 1   
    42   41   49 1   
    43   42   43 1   
    44   42   45 1   
    45   42   50 1   
    46   43   44 2   
    47   43   53 1   
    48   45   46 1   
    49   45   51 1   
    50   45   52 1   
    51   46   47 1   
    52   46   48 1   
    53   53   54 1   
    54   53   57 1   
    55   54   55 1   
    56   54   58 1   
    57   54   59 1   
    58   55   56 2   
    59   55   60 1   
    60   60   61 1   
    61   60   68 1   
    62   61   62 1   
    63   61   64 1   
    64   61   69 1   
    65   62   63 2   
    66   62   74 1   
    67   64   65 1   
    68   64   70 1   
    69   64   71 1   
    70   65   66 1   
    71   65   67 2   
    72   66   72 1   
    73   66   73 1   
    74   74   75 1   
    75   74   78 1   
    76   75   76 1   
    77   75   79 1   
    78   75   80 1   
    79   76   77 2   
    80   76   81 1   
    81   81   82 1   
    82   81   93 1   
    83   82   83 1   
    84   82   85 1   
    85   82   94 1   
    86   83   84 2   
    87   83  102 1   
    88   85   86 1   
    89   85   95 1   
    90   85   96 1   
    91   86   87 ar  
    92   86   88 ar  
    93   87   89 ar  
    94   87   97 1   
    95   88   90 ar  
    96   88   98 1   
    97   89   91 ar  
    98   89   99 1   
    99   90   91 ar  
   100   90  100 1   
   101   91   92 1   
   102   92  101 1   
   103  102  103 1   
   104  102  110 1   
   105  103  104 1   
   106  103  106 1   
   107  103  111 1   
   108  104  105 2   
   109  104  121 1   
   110  106  107 1   
   111  106  108 1   
   112  106  112 1   
   113  107  109 1   
   114  107  113 1   
   115  107  114 1   
   116  108  115 1   
   117  108  116 1   
   118  108  117 1   
   119  109  118 1   
   120  109  119 1   
   121  109  120 1   
   122  121  122 1   
   123  121  127 1   
   124  122  123 1   
   125  122  125 1   
   126  122  128 1   
   127  123  124 2   
   128  123  132 1   
   129  125  126 1   
   130  125  129 1   
   131  125  130 1   
   132  126  131 1   
   133  132  133 1   
   134  132  137 1   
   135  133  134 1   
   136  133  136 1   
   137  133  138 1   
   138  134  135 2   
   139  134  142 1   
   140  136  139 1   
   141  136  140 1   
   142  136  141 1   
   143  142  143 1   
   144  142  147 1   
   145  143  144 1   
   146  143  146 1   
   147  143  148 1   
   148  144  145 2   
   149  144  152 1   
   150  146  149 1   
   151  146  150 1   
   152  146  151 1   
   153  152  153 1   
   154  152  161 1   
   155  153  154 1   
   156  153  156 1   
   157  153  162 1   
   158  154  155 2   
   159  154  167 1   
   160  156  157 1   
   161  156  163 1   
   162  156  164 1   
   163  157  158 1   
   164  157  165 1   
   165  157  166 1   
   166  158  159 1   
   167  158  160 1   
   168  167  168 1   
   169  167  172 1   
   170  168  169 1   
   171  168  170 1   
   172  168  171 1   
   173  174  175 1   
   174  174  176 1   
   175  177  178 1   
   176  177  179 1   
   177  180  181 1   
   178  180  182 1   
@<TRIPOS>SUBSTRUCTURE
     1 MOL         1 TEMP              0 ****  ****    0 ROOT
