@<TRIPOS>MOLECULE
MOL
  182   178     1     0     0
SMALL
resp


@<TRIPOS>ATOM
      1 C1         -2.4870   -3.4300    6.2110 c3        1 MOL     -0.269980
      2 C2         -2.1670   -3.1470    4.7260 c         1 MOL      0.759253
      3 O1         -3.0760   -3.1470    3.8840 o         1 MOL     -0.578706
      4 H1         -1.7650   -4.1450    6.6080 hc        1 MOL      0.068326
      5 H2         -2.4280   -2.5030    6.7800 hc        1 MOL      0.068326
      6 H3         -3.4920   -3.8440    6.2940 hc        1 MOL      0.068326
      7 N1         -0.9090   -2.8030    4.4050 n         1 MOL     -0.615961
      8 C3         -0.4760   -2.4110    2.9940 c3        1 MOL     -0.333811
      9 C4         -0.4760   -3.6690    2.1560 c         1 MOL      0.859758
     10 O2          0.0750   -4.7100    2.4430 o         1 MOL     -0.547453
     11 C5          0.9250   -1.7780    3.1640 c3        1 MOL     -0.068843
     12 C6          1.7140   -1.4930    1.8820 c         1 MOL      0.479892
     13 O3          2.8280   -0.9160    1.9600 o         1 MOL     -0.693122
     14 O4          1.2400   -1.8500    0.7490 o         1 MOL     -0.693122
     15 H4         -0.2380   -2.6070    5.1370 hn        1 MOL      0.330170
     16 H5         -1.1940   -1.7850    2.4680 h1        1 MOL      0.124393
     17 H6          1.5080   -2.5740    3.6240 hc        1 MOL      0.097939
     18 H7          0.8480   -0.9390    3.8580 hc        1 MOL      0.097939
     19 N2         -0.9760   -3.5560    0.8610 n         1 MOL     -0.663588
     20 C7         -0.9230   -4.6520   -0.1060 c3        1 MOL      0.063357
     21 C8          0.4250   -5.2470   -0.5270 c         1 MOL      0.503088
     22 O5          0.4690   -6.4550   -0.7140 o         1 MOL     -0.595864
     23 C9         -1.8360   -4.3250   -1.3130 c3        1 MOL     -0.019790
     24 C10        -1.9650   -5.5130   -2.2980 c3        1 MOL      0.083911
     25 C11        -3.0840   -5.1630   -3.3450 c3        1 MOL     -0.130737
     26 C12        -3.2360   -6.3520   -4.4390 c3        1 MOL      0.022682
     27 N3         -3.9900   -5.9630   -5.6300 n4        1 MOL     -0.286057
     28 H8         -1.3430   -2.6840    0.4970 hn        1 MOL      0.360530
     29 H9         -1.3570   -5.5080    0.4150 h1        1 MOL      0.100535
     30 H10        -1.4920   -3.4280   -1.8280 hc        1 MOL      0.028370
     31 H11        -2.7880   -4.0810   -0.8620 hc        1 MOL      0.028370
     32 H12        -2.1580   -6.4290   -1.7370 hc        1 MOL      0.003910
     33 H13        -1.0290   -5.6360   -2.8380 hc        1 MOL      0.003910
     34 H14        -2.7110   -4.2960   -3.8810 hc        1 MOL      0.051745
     35 H15        -4.0240   -5.0540   -2.8060 hc        1 MOL      0.051745
     36 H16        -3.8110   -7.1740   -4.0200 hx        1 MOL      0.088164
     37 H17        -2.2510   -6.6420   -4.8020 hx        1 MOL      0.088164
     38 H18        -3.4340   -5.3490   -6.2020 hn        1 MOL      0.283143
     39 H19        -4.3200   -6.8130   -6.0790 hn        1 MOL      0.283143
     40 H20        -4.7980   -5.4450   -5.2970 hn        1 MOL      0.283143
     41 N4          1.5270   -4.5300   -0.5080 n         1 MOL     -0.225640
     42 C13         2.8800   -4.9720   -1.0340 c3        1 MOL     -0.047667
     43 C14         3.9440   -4.8190   -0.0640 c         1 MOL      0.467070
     44 O6          5.0710   -5.2290   -0.2490 o         1 MOL     -0.544460
     45 C15         3.1730   -4.3220   -2.4400 c3        1 MOL     -0.396494
     46 C16         3.0640   -2.7980   -2.5110 c         1 MOL      0.768048
     47 O7          3.3700   -2.0500   -1.4950 o         1 MOL     -0.700004
     48 O8          2.6110   -2.3570   -3.6220 o         1 MOL     -0.700004
     49 H21         1.3810   -3.5620   -0.2590 hn        1 MOL      0.164394
     50 H22         2.8360   -6.0520   -1.1740 h1        1 MOL      0.137611
     51 H23         2.3990   -4.7840   -3.0540 hc        1 MOL      0.129247
     52 H24         4.1800   -4.6630   -2.6790 hc        1 MOL      0.129247
     53 N5          3.6910   -4.1550    1.0820 n         1 MOL     -0.228940
     54 C17         4.7410   -3.6960    2.0680 c3        1 MOL     -0.230492
     55 C18         5.7710   -2.7210    1.5000 c         1 MOL      0.666240
     56 O9          6.7730   -2.7230    2.1650 o         1 MOL     -0.571871
     57 H25         2.7180   -4.0480    1.3380 hn        1 MOL      0.203970
     58 H26         5.3620   -4.5060    2.4510 h1        1 MOL      0.118125
     59 H27         4.2000   -3.2210    2.8860 h1        1 MOL      0.118125
     60 N6          5.5170   -2.1710    0.2910 n         1 MOL     -0.356201
     61 C19         6.5410   -1.3630   -0.4110 c3        1 MOL      0.047671
     62 C20         5.9340    0.0910   -0.7650 c         1 MOL      0.481969
     63 O10         4.7270    0.2310   -0.9670 o         1 MOL     -0.630288
     64 C21         7.0780   -2.0990   -1.6700 c3        1 MOL     -0.210175
     65 C22         7.9380   -1.1960   -2.5210 c         1 MOL      0.672465
     66 N7          9.1890   -0.9620   -2.2360 n         1 MOL     -0.813137
     67 O11         7.4890   -0.6670   -3.5100 o         1 MOL     -0.565501
     68 H28         4.6800   -2.4510   -0.1970 hn        1 MOL      0.332127
     69 H29         7.3660   -1.2940    0.3070 h1        1 MOL      0.024667
     70 H30         6.2130   -2.4470   -2.2380 hc        1 MOL      0.093291
     71 H31         7.7060   -2.9490   -1.3940 hc        1 MOL      0.093291
     72 H32         9.7220   -1.5030   -1.5760 hn        1 MOL      0.361922
     73 H33         9.7810   -0.3450   -2.7800 hn        1 MOL      0.361922
     74 N8          6.6420    1.2100   -0.7730 n         1 MOL     -0.253277
     75 C23         6.2870    2.5080   -1.3680 c3        1 MOL     -0.151463
     76 C24         5.2020    3.1640   -0.4660 c         1 MOL      0.582784
     77 O12         5.3110    3.3210    0.7810 o         1 MOL     -0.482031
     78 H34         7.5690    1.1650   -0.3630 hn        1 MOL      0.237053
     79 H35         5.9830    2.2700   -2.3940 h1        1 MOL      0.111013
     80 H36         7.1750    3.1400   -1.4400 h1        1 MOL      0.111013
     81 N9          4.1310    3.7060   -1.1420 n         1 MOL     -0.673074
     82 C25         2.9850    4.3050   -0.3460 c3        1 MOL      0.366159
     83 C26         2.3640    3.2290    0.5950 c         1 MOL      0.139996
     84 O13         2.7290    2.0310    0.6060 o         1 MOL     -0.310278
     85 C27         2.0620    4.9630   -1.3430 c3        1 MOL     -0.232794
     86 C28         2.4220    6.3600   -1.6540 ca        1 MOL     -0.031563
     87 C29         1.7870    7.4330   -0.9580 ca        1 MOL     -0.069547
     88 C30         3.4690    6.6270   -2.5820 ca        1 MOL     -0.069547
     89 C31         2.0670    8.7380   -1.2910 ca        1 MOL     -0.311132
     90 C32         3.7230    7.9430   -2.9650 ca        1 MOL     -0.311132
     91 C33         3.0090    9.0080   -2.3470 ca        1 MOL      0.358777
     92 O14         3.4380   10.2710   -2.6130 oh        1 MOL     -0.444146
     93 H37         4.0870    3.7510   -2.1450 hn        1 MOL      0.347071
     94 H38         3.4220    5.1140    0.2480 h1        1 MOL      0.056346
     95 H39         1.0390    4.8920   -0.9640 hc        1 MOL      0.091815
     96 H40         2.1560    4.3770   -2.2570 hc        1 MOL      0.091815
     97 H41         1.0540    7.1500   -0.2230 ha        1 MOL      0.102651
     98 H42         4.0190    5.8320   -3.0640 ha        1 MOL      0.102651
     99 H43         1.6040    9.5630   -0.7750 ha        1 MOL      0.177162
    100 H44         4.5280    8.2080   -3.6400 ha        1 MOL      0.177162
    101 H45         4.1780   10.1430   -3.1990 ho        1 MOL      0.334341
    102 N10         1.4610    3.7340    1.4920 n         1 MOL     -0.475065
    103 C34         0.9870    3.0350    2.6740 c3        1 MOL      0.169531
    104 C35         0.0230    1.8990    2.4060 c         1 MOL      0.446460
    105 O15         0.1730    1.1400    1.5010 o         1 MOL     -0.386061
    106 C36         2.0700    2.5030    3.7330 c3        1 MOL      0.065546
    107 C37         1.5080    2.1620    5.1650 c3        1 MOL      0.145660
    108 C38         3.1240    3.5930    3.9480 c3        1 MOL     -0.302377
    109 C39         2.3770    1.4270    6.1350 c3        1 MOL     -0.192887
    110 H46         1.1670    4.6830    1.3390 hn        1 MOL      0.323149
    111 H47         0.4520    3.7980    3.2350 h1        1 MOL      0.006760
    112 H48         2.4650    1.5470    3.3840 hc        1 MOL      0.083002
    113 H49         0.6270    1.5230    5.0860 hc        1 MOL     -0.046045
    114 H50         1.1370    3.0320    5.7150 hc        1 MOL     -0.046045
    115 H51         3.6720    3.8450    3.0430 hc        1 MOL      0.083922
    116 H52         2.6260    4.4390    4.4150 hc        1 MOL      0.083922
    117 H53         3.9870    3.3100    4.5630 hc        1 MOL      0.083922
    118 H54         2.5890    0.4680    5.6590 hc        1 MOL      0.050982
    119 H55         3.2760    2.0270    6.2800 hc        1 MOL      0.050982
    120 H56         1.8320    1.2530    7.0690 hc        1 MOL      0.050982
    121 N11        -1.0260    1.8230    3.2550 n         1 MOL     -0.551270
    122 C40        -2.0120    0.7720    3.2720 c3        1 MOL     -0.010948
    123 C41        -2.9300    0.5040    2.0340 c         1 MOL      0.365718
    124 O16        -3.5080   -0.5890    1.9350 o         1 MOL     -0.455952
    125 C42        -2.9230    0.9090    4.5470 c3        1 MOL      0.313466
    126 O17        -2.0910    0.7710    5.7240 oh        1 MOL     -0.603785
    127 H57        -1.0320    2.4570    4.0360 hn        1 MOL      0.248726
    128 H58        -1.4700   -0.1440    3.4930 h1        1 MOL      0.202005
    129 H59        -3.7420    0.1950    4.5360 h1        1 MOL      0.024347
    130 H60        -3.4760    1.8560    4.4960 h1        1 MOL      0.024347
    131 H61        -1.4900    1.5190    5.7800 ho        1 MOL      0.359001
    132 N12        -3.0270    1.4540    1.1210 n         1 MOL     -0.296696
    133 C43        -3.9430    1.3340   -0.0140 c3        1 MOL     -0.006535
    134 C44        -3.2480    0.4410   -1.0470 c         1 MOL      0.617319
    135 O18        -2.0210    0.4710   -1.1630 o         1 MOL     -0.540570
    136 C45        -4.1210    2.8140   -0.4800 c3        1 MOL     -0.281771
    137 H62        -2.5040    2.3140    1.1760 hn        1 MOL      0.254045
    138 H63        -4.9290    0.9490    0.2480 h1        1 MOL      0.119556
    139 H64        -4.3440    3.5370    0.2980 hc        1 MOL      0.085382
    140 H65        -3.2110    3.1690   -0.9560 hc        1 MOL      0.085382
    141 H66        -4.9450    2.8920   -1.1930 hc        1 MOL      0.085382
    142 N13        -3.9980   -0.4600   -1.7230 n         1 MOL     -0.723951
    143 C46        -5.4800   -0.6700   -1.6390 c3        1 MOL      0.445126
    144 C47        -6.2060    0.6390   -2.0460 c         1 MOL      0.575481
    145 O19        -6.0700    1.1150   -3.1230 o         1 MOL     -0.559189
    146 C48        -5.9740   -1.9290   -2.4540 c3        1 MOL     -0.481266
    147 H67        -3.4800   -0.9500   -2.4360 hn        1 MOL      0.324670
    148 H68        -5.7000   -0.7660   -0.5720 h1        1 MOL      0.000034
    149 H69        -5.7100   -1.6780   -3.4820 hc        1 MOL      0.126097
    150 H70        -5.5190   -2.8750   -2.1670 hc        1 MOL      0.126097
    151 H71        -7.0580   -2.0770   -2.4320 hc        1 MOL      0.126097
    152 N14        -7.2610    1.1230   -1.3770 n         1 MOL     -0.353374
    153 C49        -7.8920    0.6260   -0.1920 c3        1 MOL     -0.373301
    154 C50        -8.1700    1.8140    0.8590 c         1 MOL      0.587241
    155 O20        -7.7380    1.6790    2.0270 o         1 MOL     -0.557743
    156 C51        -9.1740   -0.2190   -0.6190 c3        1 MOL      0.253993
    157 C52       -10.4570    0.4920   -1.0900 c3        1 MOL     -0.402620
    158 C53       -10.2550    1.4460   -2.3140 c         1 MOL      0.743172
    159 O21       -10.0700    2.6670   -2.1400 o         1 MOL     -0.667920
    160 O22       -10.2230    1.0660   -3.5130 o         1 MOL     -0.667920
    161 H72        -7.6360    1.9650   -1.8070 hn        1 MOL      0.283932
    162 H73        -7.2670   -0.0290    0.4220 h1        1 MOL      0.127531
    163 H74        -9.4170   -0.9130    0.1850 hc        1 MOL     -0.009510
    164 H75        -8.7860   -0.9590   -1.3170 hc        1 MOL     -0.009510
    165 H76       -10.8240    1.0920   -0.2580 hc        1 MOL      0.079452
    166 H77       -11.1580   -0.2830   -1.4050 hc        1 MOL      0.079452
    167 N15        -8.6780    3.0010    0.4010 n         1 MOL     -0.292298
    168 C54        -8.8520    4.1670    1.2960 c3        1 MOL     -0.139211
    169 H78        -9.6360    4.8130    0.9020 h1        1 MOL      0.077807
    170 H79        -9.1310    3.8230    2.2920 h1        1 MOL      0.077807
    171 H80        -7.9170    4.7250    1.3530 h1        1 MOL      0.077807
    172 H81        -8.8650    3.1620   -0.5710 hn        1 MOL      0.255551
    173 Ca1         2.1220   -0.0650   -0.8420 Ca        1 MOL      1.771959
    174 O23         0.1730   -1.0270   -2.2440 oh        1 MOL     -0.858900
    175 H82         0.0270   -1.7430   -2.8640 ho        1 MOL      0.409695
    176 H83        -0.6060   -0.4760   -2.3220 ho        1 MOL      0.409695
    177 O24         0.6470    1.9090   -1.7770 oh        1 MOL     -0.858900
    178 H84         0.8870    2.4320   -2.5470 ho        1 MOL      0.409695
    179 H85        -0.2930    2.0180   -1.7070 ho        1 MOL      0.409695
    180 O25         2.6600    0.3770   -3.4470 oh        1 MOL     -0.858900
    181 H86         3.5660    0.5200   -3.7180 ho        1 MOL      0.409695
    182 H87         2.5070   -0.5510   -3.6070 ho        1 MOL      0.409695
@<TRIPOS>BOND
     1    1    2 1   
     2    1    4 1   
     3    1    5 1   
     4    1    6 1   
     5    2    3 2   
     6    2    7 1   
     7    7    8 1   
     8    7   15 1   
     9    8    9 1   
    10    8   11 1   
    11    8   16 1   
    12    9   10 2   
    13    9   19 1   
    14   11   12 1   
    15   11   17 1   
    16   11   18 1   
    17   12   13 1   
    18   12   14 1   
    19   19   20 1   
    20   19   28 1   
    21   20   21 1   
    22   20   23 1   
    23   20   29 1   
    24   21   22 2   
    25   21   41 1   
    26   23   24 1   
    27   23   30 1   
    28   23   31 1   
    29   24   25 1   
    30   24   32 1   
    31   24   33 1   
    32   25   26 1   
    33   25   34 1   
    34   25   35 1   
    35   26   27 1   
    36   26   36 1   
    37   26   37 1   
    38   27   38 1   
    39   27   39 1   
    40   27   40 1   
    41   41   42 1   
    42   41   49 1   
    43   42   43 1   
    44   42   45 1   
    45   42   50 1   
    46   43   44 2   
    47   43   53 1   
    48   45   46 1   
    49   45   51 1   
    50   45   52 1   
    51   46   47 1   
    52   46   48 1   
    53   53   54 1   
    54   53   57 1   
    55   54   55 1   
    56   54   58 1   
    57   54   59 1   
    58   55   56 2   
    59   55   60 1   
    60   60   61 1   
    61   60   68 1   
    62   61   62 1   
    63   61   64 1   
    64   61   69 1   
    65   62   63 2   
    66   62   74 1   
    67   64   65 1   
    68   64   70 1   
    69   64   71 1   
    70   65   66 1   
    71   65   67 2   
    72   66   72 1   
    73   66   73 1   
    74   74   75 1   
    75   74   78 1   
    76   75   76 1   
    77   75   79 1   
    78   75   80 1   
    79   76   77 2   
    80   76   81 1   
    81   81   82 1   
    82   81   93 1   
    83   82   83 1   
    84   82   85 1   
    85   82   94 1   
    86   83   84 2   
    87   83  102 1   
    88   85   86 1   
    89   85   95 1   
    90   85   96 1   
    91   86   87 ar  
    92   86   88 ar  
    93   87   89 ar  
    94   87   97 1   
    95   88   90 ar  
    96   88   98 1   
    97   89   91 ar  
    98   89   99 1   
    99   90   91 ar  
   100   90  100 1   
   101   91   92 1   
   102   92  101 1   
   103  102  103 1   
   104  102  110 1   
   105  103  104 1   
   106  103  106 1   
   107  103  111 1   
   108  104  105 2   
   109  104  121 1   
   110  106  107 1   
   111  106  108 1   
   112  106  112 1   
   113  107  109 1   
   114  107  113 1   
   115  107  114 1   
   116  108  115 1   
   117  108  116 1   
   118  108  117 1   
   119  109  118 1   
   120  109  119 1   
   121  109  120 1   
   122  121  122 1   
   123  121  127 1   
   124  122  123 1   
   125  122  125 1   
   126  122  128 1   
   127  123  124 2   
   128  123  132 1   
   129  125  126 1   
   130  125  129 1   
   131  125  130 1   
   132  126  131 1   
   133  132  133 1   
   134  132  137 1   
   135  133  134 1   
   136  133  136 1   
   137  133  138 1   
   138  134  135 2   
   139  134  142 1   
   140  136  139 1   
   141  136  140 1   
   142  136  141 1   
   143  142  143 1   
   144  142  147 1   
   145  143  144 1   
   146  143  146 1   
   147  143  148 1   
   148  144  145 2   
   149  144  152 1   
   150  146  149 1   
   151  146  150 1   
   152  146  151 1   
   153  152  153 1   
   154  152  161 1   
   155  153  154 1   
   156  153  156 1   
   157  153  162 1   
   158  154  155 2   
   159  154  167 1   
   160  156  157 1   
   161  156  163 1   
   162  156  164 1   
   163  157  158 1   
   164  157  165 1   
   165  157  166 1   
   166  158  159 1   
   167  158  160 1   
   168  167  168 1   
   169  167  172 1   
   170  168  169 1   
   171  168  170 1   
   172  168  171 1   
   173  174  175 1   
   174  174  176 1   
   175  177  178 1   
   176  177  179 1   
   177  180  181 1   
   178  180  182 1   
@<TRIPOS>SUBSTRUCTURE
     1 MOL         1 TEMP              0 ****  ****    0 ROOT
