@<TRIPOS>MOLECULE
MOL
  189   185     1     0     0
SMALL
resp


@<TRIPOS>ATOM
      1 C1         11.3250    5.3810   -2.9800 c3        1 MOL     -0.639406
      2 C2         10.8280    4.3330   -1.9550 c         1 MOL      1.092893
      3 O1         10.8610    3.1470   -2.1500 o         1 MOL     -0.666081
      4 H1         10.5960    5.4770   -3.7840 hc        1 MOL      0.147042
      5 H2         11.4490    6.3440   -2.4840 hc        1 MOL      0.147042
      6 H3         12.2810    5.0590   -3.3950 hc        1 MOL      0.147042
      7 N1         10.3670    4.7950   -0.7860 n         1 MOL     -0.800209
      8 C3         10.0380    3.8540    0.3300 c3        1 MOL     -0.385558
      9 C4          8.9520    2.8260    0.0770 c         1 MOL      0.785485
     10 O2          7.7880    3.1710   -0.2610 o         1 MOL     -0.626227
     11 C5          9.7460    4.5830    1.7160 c3        1 MOL      0.054300
     12 C6          8.7180    5.7350    1.8050 c         1 MOL      0.792100
     13 O3          7.9580    6.0050    0.8800 o         1 MOL     -0.743329
     14 O4          8.7260    6.3960    2.8860 o         1 MOL     -0.743329
     15 H4         10.5070    5.7540   -0.5030 hn        1 MOL      0.363244
     16 H5         10.9790    3.3140    0.4750 h1        1 MOL      0.162470
     17 H6         10.6810    5.0670    1.9910 hc        1 MOL      0.039683
     18 H7          9.5670    3.8520    2.5060 hc        1 MOL      0.039683
     19 N2          9.2480    1.5760    0.1170 n         1 MOL     -0.348621
     20 C7          8.4450    0.3650   -0.1400 c3        1 MOL     -0.029411
     21 C8          7.3290    0.2460    0.9630 c         1 MOL      0.576899
     22 O5          7.5350    0.1980    2.1820 o         1 MOL     -0.527978
     23 C9          9.2930   -0.8800   -0.2660 c3        1 MOL     -0.199406
     24 C10         8.5840   -2.0580   -0.9330 c3        1 MOL      0.052876
     25 C11         9.5680   -3.2200   -1.1820 c3        1 MOL     -0.098834
     26 C12         8.8200   -4.2510   -2.1390 c3        1 MOL      0.022038
     27 N3          9.4980   -5.5570   -2.2150 n4        1 MOL     -0.099342
     28 H8         10.1870    1.3810    0.4460 hn        1 MOL      0.212158
     29 H9          7.9290    0.5640   -1.0770 h1        1 MOL      0.141072
     30 H10         9.5960   -1.1420    0.7510 hc        1 MOL      0.085406
     31 H11        10.1500   -0.5880   -0.8710 hc        1 MOL      0.085406
     32 H12         8.2090   -1.6800   -1.8800 hc        1 MOL      0.031405
     33 H13         7.7490   -2.4290   -0.3350 hc        1 MOL      0.031405
     34 H14         9.5920   -3.7690   -0.2320 hc        1 MOL      0.059457
     35 H15        10.5300   -2.8920   -1.5820 hc        1 MOL      0.059457
     36 H16         8.5140   -3.7900   -3.0780 hx        1 MOL      0.069802
     37 H17         7.9450   -4.5230   -1.5470 hx        1 MOL      0.069802
     38 H18         8.7420   -6.2010   -2.3990 hn        1 MOL      0.217123
     39 H19        10.1050   -5.7050   -3.0050 hn        1 MOL      0.217123
     40 H20         9.9670   -5.8590   -1.3750 hn        1 MOL      0.217123
     41 N4          6.0540    0.3410    0.4930 n         1 MOL     -0.366992
     42 C13         4.8690    0.1890    1.3030 c3        1 MOL      0.080493
     43 C14         3.6570   -0.1630    0.4140 c         1 MOL      0.335407
     44 O6          3.6670   -0.1640   -0.8100 o         1 MOL     -0.459799
     45 C15         4.5460    1.5170    1.9740 c3        1 MOL      0.282298
     46 C16         4.9170    2.8110    1.2010 c         1 MOL      0.547586
     47 O7          4.7740    2.9620   -0.0450 o         1 MOL     -0.765662
     48 O8          5.4360    3.7850    1.7890 o         1 MOL     -0.765662
     49 H21         5.9730    0.3450   -0.5070 hn        1 MOL      0.178147
     50 H22         4.9600   -0.5730    2.0700 h1        1 MOL      0.036223
     51 H23         5.1330    1.4950    2.8930 hc        1 MOL     -0.032797
     52 H24         3.4980    1.6380    2.2490 hc        1 MOL     -0.032797
     53 N5          2.5190   -0.5260    1.0400 n         1 MOL     -0.429998
     54 C17         2.4290   -0.9850    2.4320 c3        1 MOL      0.029081
     55 C18         3.0680   -2.3830    2.5420 c         1 MOL      0.611811
     56 O9          4.0220   -2.6690    1.7820 o         1 MOL     -0.498794
     57 H25         1.6520   -0.5840    0.5180 hn        1 MOL      0.322826
     58 H26         1.3750   -1.0040    2.7320 h1        1 MOL      0.049764
     59 H27         2.9210   -0.3120    3.1230 h1        1 MOL      0.049764
     60 N6          2.5140   -3.2900    3.4100 n         1 MOL     -0.536079
     61 C19         2.7350   -4.7110    3.3560 c3        1 MOL      0.069900
     62 C20         1.6350   -5.4440    2.6100 c         1 MOL      0.429407
     63 O10         0.5310   -5.0810    2.7160 o         1 MOL     -0.471988
     64 C21         2.8090   -5.1370    4.7860 c3        1 MOL      0.017797
     65 C22         3.3500   -6.5280    5.0390 c         1 MOL      0.646824
     66 O11         4.3930   -6.6370    5.7060 o         1 MOL     -0.667114
     67 O12         2.7260   -7.4730    4.5960 o         1 MOL     -0.667114
     68 H28         1.7200   -3.0100    3.9770 hn        1 MOL      0.274945
     69 H29         3.7250   -4.8720    2.9360 h1        1 MOL      0.033015
     70 H30         1.8190   -5.1320    5.2560 hc        1 MOL      0.001763
     71 H31         3.4410   -4.5010    5.4020 hc        1 MOL      0.001763
     72 N7          1.8920   -6.4970    1.8330 n         1 MOL     -0.245948
     73 C23         0.8830   -7.3170    1.1060 c3        1 MOL     -0.219625
     74 C24         0.4280   -6.6370   -0.2110 c         1 MOL      0.564541
     75 O13         0.2110   -7.2570   -1.2340 o         1 MOL     -0.558709
     76 H32         2.8180   -6.8520    1.6780 hn        1 MOL      0.242111
     77 H33        -0.0200   -7.3830    1.7070 h1        1 MOL      0.134533
     78 H34         1.3340   -8.2830    0.8740 h1        1 MOL      0.134533
     79 N8          0.3750   -5.2830   -0.2460 n         1 MOL     -0.479884
     80 C25         0.2510   -4.3710   -1.4290 c3        1 MOL      0.353398
     81 C26        -0.4630   -3.1070   -1.1150 c         1 MOL      0.067468
     82 O14        -0.4650   -2.6180   -0.0170 o         1 MOL     -0.448803
     83 C27         1.5250   -3.9920   -2.1230 c3        1 MOL      0.316455
     84 C28         2.5980   -3.3580   -1.2630 c3        1 MOL     -0.057720
     85 O15         1.9140   -4.9820   -2.9880 oh        1 MOL     -0.663818
     86 H35         0.2970   -4.8420    0.6660 hn        1 MOL      0.223548
     87 H36        -0.3480   -4.8620   -2.2010 h1        1 MOL      0.001478
     88 H37         1.2770   -3.1520   -2.7830 h1        1 MOL     -0.011187
     89 H38         2.7560   -5.3740   -2.7460 ho        1 MOL      0.404120
     90 H39         2.1830   -2.4890   -0.7470 hc        1 MOL     -0.006418
     91 H40         2.9770   -4.0890   -0.5490 hc        1 MOL     -0.006418
     92 H41         3.4030   -3.0130   -1.9130 hc        1 MOL     -0.006418
     93 N9         -1.0380   -2.4650   -2.1310 n         1 MOL     -0.055347
     94 C29        -1.6910   -1.1170   -2.0510 c3        1 MOL     -0.208822
     95 C30        -3.2060   -1.1920   -1.7310 c         1 MOL      0.681193
     96 O16        -3.7890   -0.1740   -1.3690 o         1 MOL     -0.558978
     97 C31        -1.3920   -0.3540   -3.3760 c3        1 MOL      0.186184
     98 C32        -0.0050   -0.4700   -3.9690 c3        1 MOL     -0.125683
     99 C33        -1.7510    1.1390   -3.2270 c3        1 MOL     -0.234014
    100 C34         1.0700    0.0320   -3.0210 c3        1 MOL     -0.039051
    101 H42        -0.9710   -2.9180   -3.0390 hn        1 MOL      0.202271
    102 H43        -1.1770   -0.5630   -1.2760 h1        1 MOL      0.137394
    103 H44        -2.0650   -0.8540   -4.0810 hc        1 MOL     -0.021058
    104 H45         0.0200    0.0650   -4.9210 hc        1 MOL      0.022244
    105 H46         0.1650   -1.5230   -4.2120 hc        1 MOL      0.022244
    106 H47        -2.8340    1.2250   -3.1260 hc        1 MOL      0.060975
    107 H48        -1.2910    1.6770   -2.3970 hc        1 MOL      0.060975
    108 H49        -1.4450    1.6950   -4.1140 hc        1 MOL      0.060975
    109 H50         1.0260   -0.3650   -2.0040 hc        1 MOL      0.031434
    110 H51         2.0770   -0.2210   -3.3640 hc        1 MOL      0.031434
    111 H52         1.0390    1.1130   -2.8850 hc        1 MOL      0.031434
    112 N10        -3.7590   -2.3820   -1.7170 n         1 MOL     -0.491412
    113 C35        -4.9990   -2.7450   -1.0570 c3        1 MOL      0.125308
    114 C36        -6.2280   -2.4460   -2.0290 c         1 MOL      0.419632
    115 O17        -6.1070   -2.4580   -3.2690 o         1 MOL     -0.492631
    116 C37        -5.0950   -4.1550   -0.5850 c3        1 MOL      0.279880
    117 C38        -4.1250   -4.3580    0.5170 c3        1 MOL     -0.474177
    118 O18        -6.3950   -4.3860   -0.0640 oh        1 MOL     -0.637324
    119 H53        -3.1600   -3.1380   -2.0340 hn        1 MOL      0.208263
    120 H54        -5.1330   -2.0970   -0.1950 h1        1 MOL      0.070811
    121 H55        -4.9260   -4.8390   -1.4280 h1        1 MOL      0.042290
    122 H56        -6.3780   -5.2930    0.2440 ho        1 MOL      0.420920
    123 H57        -4.3110   -3.6560    1.3330 hc        1 MOL      0.145808
    124 H58        -4.1240   -5.3480    0.9720 hc        1 MOL      0.145808
    125 H59        -3.1290   -4.0760    0.1520 hc        1 MOL      0.145808
    126 N11        -7.4580   -2.2240   -1.5200 n         1 MOL     -0.361352
    127 C39        -8.6840   -1.9020   -2.2710 c3        1 MOL     -0.005167
    128 C40        -9.2820   -0.4860   -2.1580 c         1 MOL      0.596941
    129 O19        -9.8620    0.0450   -3.0990 o         1 MOL     -0.572344
    130 C41        -9.8330   -2.8680   -1.9420 c3        1 MOL      0.501571
    131 C42       -10.3760   -2.8390   -0.4730 c3        1 MOL     -0.222598
    132 O20        -9.3530   -4.1580   -2.2390 oh        1 MOL     -0.683464
    133 H60        -7.5040   -2.3770   -0.5260 hn        1 MOL      0.294490
    134 H61        -8.4470   -2.1370   -3.3020 h1        1 MOL      0.052462
    135 H62       -10.6560   -2.6960   -2.6290 h1        1 MOL     -0.066074
    136 H63        -9.2590   -4.2790   -3.1870 ho        1 MOL      0.410701
    137 H64       -11.1000   -3.6440   -0.4210 hc        1 MOL      0.052327
    138 H65        -9.5260   -2.9500    0.2060 hc        1 MOL      0.052327
    139 H66       -10.9110   -1.8850   -0.4070 hc        1 MOL      0.052327
    140 N12        -9.0290    0.1540   -0.9930 n         1 MOL     -0.462060
    141 C43        -9.5360    1.4930   -0.6370 c3        1 MOL     -0.037425
    142 C44        -8.6580    2.1610    0.3720 c         1 MOL      0.769535
    143 O21        -8.2770    1.4620    1.3110 o         1 MOL     -0.560433
    144 C45       -11.0260    1.3110   -0.2360 c3        1 MOL      0.056331
    145 C46       -11.7300    2.4870    0.4910 c3        1 MOL     -0.109814
    146 C47       -13.0580    1.9310    1.0570 c3        1 MOL     -0.120866
    147 C48       -13.3180    2.7330    2.3720 c3        1 MOL      0.169464
    148 N13       -14.4250    2.1930    3.2010 n4        1 MOL     -0.426328
    149 H67        -8.4500   -0.3210   -0.3090 hn        1 MOL      0.193247
    150 H68        -9.4640    2.1220   -1.5190 h1        1 MOL      0.085303
    151 H69       -11.1120    0.4440    0.4180 hc        1 MOL      0.008322
    152 H70       -11.5660    1.0200   -1.1420 hc        1 MOL      0.008322
    153 H71       -11.8820    3.2250   -0.3080 hc        1 MOL      0.064264
    154 H72       -11.0260    2.8270    1.2480 hc        1 MOL      0.064264
    155 H73       -12.8120    0.9600    1.5030 hc        1 MOL      0.058654
    156 H74       -13.9650    1.9230    0.4540 hc        1 MOL      0.058654
    157 H75       -13.4960    3.7910    2.1660 hx        1 MOL      0.053863
    158 H76       -12.3490    2.7910    2.8590 hx        1 MOL      0.053863
    159 H77       -14.2320    1.3030    3.6540 hn        1 MOL      0.296062
    160 H78       -14.5580    2.8850    3.9250 hn        1 MOL      0.296062
    161 H79       -15.2490    2.1290    2.6230 hn        1 MOL      0.296062
    162 N14        -8.4810    3.4480    0.2210 n         1 MOL     -0.706478
    163 C49        -7.5610    4.1640    1.0990 c3        1 MOL      0.431929
    164 C50        -6.0040    3.9710    0.9780 c         1 MOL      0.199411
    165 O22        -5.3920    3.6920    2.0200 o         1 MOL     -0.488682
    166 C51        -7.9310    5.6440    1.0310 c3        1 MOL     -0.109687
    167 C52        -7.0680    6.5040    1.9500 c3        1 MOL     -0.053429
    168 C53        -7.6740    7.8500    2.2880 c         1 MOL      0.671195
    169 O23        -8.0110    8.0760    3.4870 o         1 MOL     -0.667431
    170 O24        -7.8920    8.6410    1.3260 o         1 MOL     -0.667431
    171 H80        -8.8280    3.9680   -0.5740 hn        1 MOL      0.298147
    172 H81        -7.8560    3.8530    2.1020 h1        1 MOL      0.007108
    173 H82        -8.9880    5.7560    1.2650 hc        1 MOL      0.013947
    174 H83        -7.7300    6.0110    0.0250 hc        1 MOL      0.013947
    175 H84        -6.0530    6.6920    1.6040 hc        1 MOL      0.005824
    176 H85        -6.8910    5.9580    2.8730 hc        1 MOL      0.005824
    177 N15        -5.3860    4.0290   -0.1910 n         1 MOL     -0.146795
    178 C54        -5.8350    4.2700   -1.5710 c3        1 MOL     -0.235924
    179 H86        -4.9750    4.5130   -2.1950 h1        1 MOL      0.103215
    180 H87        -6.3220    3.3740   -1.9570 h1        1 MOL      0.103215
    181 H88        -6.5400    5.1010   -1.5850 h1        1 MOL      0.103215
    182 H89        -4.4010    3.8660   -0.1040 hn        1 MOL      0.250163
    183 Ca1         6.0100    5.2380   -0.5110 Ca        1 MOL      1.679561
    184 O25         7.5280    4.9070   -2.9780 oh        1 MOL     -0.760497
    185 H90         7.0900    5.7600   -3.0520 ho        1 MOL      0.386202
    186 H91         7.6420    4.6190   -3.8800 ho        1 MOL      0.386202
    187 O26         4.4930    4.6850   -2.7960 oh        1 MOL     -0.760497
    188 H92         4.1070    3.9110   -3.1860 ho        1 MOL      0.386202
    189 H93         3.8090    5.0390   -2.2320 ho        1 MOL      0.386202
@<TRIPOS>BOND
     1    1    2 1   
     2    1    4 1   
     3    1    5 1   
     4    1    6 1   
     5    2    3 2   
     6    2    7 1   
     7    7    8 1   
     8    7   15 1   
     9    8    9 1   
    10    8   11 1   
    11    8   16 1   
    12    9   10 2   
    13    9   19 1   
    14   11   12 1   
    15   11   17 1   
    16   11   18 1   
    17   12   13 1   
    18   12   14 1   
    19   19   20 1   
    20   19   28 1   
    21   20   21 1   
    22   20   23 1   
    23   20   29 1   
    24   21   22 2   
    25   21   41 1   
    26   23   24 1   
    27   23   30 1   
    28   23   31 1   
    29   24   25 1   
    30   24   32 1   
    31   24   33 1   
    32   25   26 1   
    33   25   34 1   
    34   25   35 1   
    35   26   27 1   
    36   26   36 1   
    37   26   37 1   
    38   27   38 1   
    39   27   39 1   
    40   27   40 1   
    41   41   42 1   
    42   41   49 1   
    43   42   43 1   
    44   42   45 1   
    45   42   50 1   
    46   43   44 2   
    47   43   53 1   
    48   45   46 1   
    49   45   51 1   
    50   45   52 1   
    51   46   47 1   
    52   46   48 1   
    53   53   54 1   
    54   53   57 1   
    55   54   55 1   
    56   54   58 1   
    57   54   59 1   
    58   55   56 2   
    59   55   60 1   
    60   60   61 1   
    61   60   68 1   
    62   61   62 1   
    63   61   64 1   
    64   61   69 1   
    65   62   63 2   
    66   62   72 1   
    67   64   65 1   
    68   64   70 1   
    69   64   71 1   
    70   65   66 1   
    71   65   67 1   
    72   72   73 1   
    73   72   76 1   
    74   73   74 1   
    75   73   77 1   
    76   73   78 1   
    77   74   75 2   
    78   74   79 1   
    79   79   80 1   
    80   79   86 1   
    81   80   81 1   
    82   80   83 1   
    83   80   87 1   
    84   81   82 2   
    85   81   93 1   
    86   83   84 1   
    87   83   85 1   
    88   83   88 1   
    89   84   90 1   
    90   84   91 1   
    91   84   92 1   
    92   85   89 1   
    93   93   94 1   
    94   93  101 1   
    95   94   95 1   
    96   94   97 1   
    97   94  102 1   
    98   95   96 2   
    99   95  112 1   
   100   97   98 1   
   101   97   99 1   
   102   97  103 1   
   103   98  100 1   
   104   98  104 1   
   105   98  105 1   
   106   99  106 1   
   107   99  107 1   
   108   99  108 1   
   109  100  109 1   
   110  100  110 1   
   111  100  111 1   
   112  112  113 1   
   113  112  119 1   
   114  113  114 1   
   115  113  116 1   
   116  113  120 1   
   117  114  115 2   
   118  114  126 1   
   119  116  117 1   
   120  116  118 1   
   121  116  121 1   
   122  117  123 1   
   123  117  124 1   
   124  117  125 1   
   125  118  122 1   
   126  126  127 1   
   127  126  133 1   
   128  127  128 1   
   129  127  130 1   
   130  127  134 1   
   131  128  129 2   
   132  128  140 1   
   133  130  131 1   
   134  130  132 1   
   135  130  135 1   
   136  131  137 1   
   137  131  138 1   
   138  131  139 1   
   139  132  136 1   
   140  140  141 1   
   141  140  149 1   
   142  141  142 1   
   143  141  144 1   
   144  141  150 1   
   145  142  143 2   
   146  142  162 1   
   147  144  145 1   
   148  144  151 1   
   149  144  152 1   
   150  145  146 1   
   151  145  153 1   
   152  145  154 1   
   153  146  147 1   
   154  146  155 1   
   155  146  156 1   
   156  147  148 1   
   157  147  157 1   
   158  147  158 1   
   159  148  159 1   
   160  148  160 1   
   161  148  161 1   
   162  162  163 1   
   163  162  171 1   
   164  163  164 1   
   165  163  166 1   
   166  163  172 1   
   167  164  165 2   
   168  164  177 1   
   169  166  167 1   
   170  166  173 1   
   171  166  174 1   
   172  167  168 1   
   173  167  175 1   
   174  167  176 1   
   175  168  169 1   
   176  168  170 1   
   177  177  178 1   
   178  177  182 1   
   179  178  179 1   
   180  178  180 1   
   181  178  181 1   
   182  184  185 1   
   183  184  186 1   
   184  187  188 1   
   185  187  189 1   
@<TRIPOS>SUBSTRUCTURE
     1 MOL         1 TEMP              0 ****  ****    0 ROOT
