@<TRIPOS>MOLECULE
MOL
  182   178     1     0     0
SMALL
resp


@<TRIPOS>ATOM
      1 C1          0.1280   -5.0460    5.4820 c3        1 MOL     -0.329224
      2 C2          0.2240   -4.4430    4.0650 c         1 MOL      0.786347
      3 O1         -0.6850   -4.4500    3.2670 o         1 MOL     -0.636371
      4 H1         -0.7940   -5.6220    5.5700 hc        1 MOL      0.096337
      5 H2          0.9830   -5.7000    5.6580 hc        1 MOL      0.096337
      6 H3          0.1260   -4.2430    6.2190 hc        1 MOL      0.096337
      7 N1          1.3300   -3.7640    3.7650 n         1 MOL     -0.576225
      8 C3          1.7550   -3.2440    2.4210 c3        1 MOL     -0.021137
      9 C4          2.0210   -4.4100    1.4490 c         1 MOL      0.599885
     10 O2          2.8550   -5.2780    1.7690 o         1 MOL     -0.541811
     11 C5          2.9840   -2.4130    2.6850 c3        1 MOL     -0.094283
     12 C6          3.3940   -1.6880    1.4090 c         1 MOL      0.414299
     13 O3          3.9930   -0.5600    1.4710 o         1 MOL     -0.654398
     14 O4          2.8690   -1.9990    0.3250 o         1 MOL     -0.654398
     15 H4          2.0390   -3.7800    4.4790 hn        1 MOL      0.305676
     16 H5          0.9280   -2.6760    1.9960 h1        1 MOL     -0.039234
     17 H6          3.7780   -3.1130    2.9490 hc        1 MOL      0.089454
     18 H7          2.8910   -1.6940    3.4990 hc        1 MOL      0.089454
     19 N2          1.3940   -4.4320    0.2640 n         1 MOL     -0.332578
     20 C7          1.5860   -5.4100   -0.8620 c3        1 MOL     -0.107371
     21 C8          2.9760   -5.2970   -1.4980 c         1 MOL      0.646527
     22 O5          3.4270   -6.2140   -2.0350 o         1 MOL     -0.558943
     23 C9          0.4810   -5.1740   -1.8610 c3        1 MOL     -0.033469
     24 C10        -0.8680   -5.6230   -1.3420 c3        1 MOL      0.078283
     25 C11        -2.0740   -4.9100   -2.0670 c3        1 MOL      0.043870
     26 C12        -3.3480   -5.3290   -1.4320 c3        1 MOL     -0.436862
     27 N3         -4.3700   -4.2400   -1.6960 n4        1 MOL     -0.009994
     28 H8          0.8140   -3.6510    0.0020 hn        1 MOL      0.274013
     29 H9          1.5540   -6.4190   -0.4280 h1        1 MOL      0.110837
     30 H10         0.5770   -5.6440   -2.8420 hc        1 MOL      0.019002
     31 H11         0.4230   -4.0960   -2.0310 hc        1 MOL      0.019002
     32 H12        -0.9330   -5.5370   -0.2560 hc        1 MOL      0.014425
     33 H13        -0.9680   -6.7140   -1.4380 hc        1 MOL      0.014425
     34 H14        -1.9780   -5.1080   -3.1340 hc        1 MOL      0.022470
     35 H15        -1.9950   -3.8370   -1.9030 hc        1 MOL      0.022470
     36 H16        -3.2090   -5.6040   -0.3870 hx        1 MOL      0.194462
     37 H17        -3.5330   -6.1630   -2.1100 hx        1 MOL      0.194462
     38 H18        -4.4710   -3.9360   -2.6600 hn        1 MOL      0.219709
     39 H19        -5.2950   -4.6360   -1.5590 hn        1 MOL      0.219709
     40 H20        -4.2520   -3.4500   -1.0830 hn        1 MOL      0.219709
     41 N4          3.6100   -4.1050   -1.4610 n         1 MOL     -0.422957
     42 C13         4.9020   -3.8610   -2.1680 c3        1 MOL      0.202605
     43 C14         6.0870   -3.5450   -1.2250 c         1 MOL      0.295479
     44 O6          7.2640   -3.5770   -1.6810 o         1 MOL     -0.532911
     45 C15         4.7190   -2.7700   -3.2910 c3        1 MOL     -0.603596
     46 C16         4.1570   -1.5060   -2.8820 c         1 MOL      1.154092
     47 O7          4.7700   -0.8110   -2.1010 o         1 MOL     -0.887548
     48 O8          2.9990   -1.1020   -3.2680 o         1 MOL     -0.887548
     49 H21         3.0450   -3.3400   -1.1300 hn        1 MOL      0.132128
     50 H22         5.2260   -4.7710   -2.6720 h1        1 MOL      0.123277
     51 H23         4.1580   -3.2510   -4.1000 hc        1 MOL      0.149334
     52 H24         5.6890   -2.6320   -3.7620 hc        1 MOL      0.149334
     53 N5          5.7930   -3.1190    0.0120 n         1 MOL      0.013973
     54 C17         6.6870   -2.6300    1.0980 c3        1 MOL     -0.345725
     55 C18         7.5130   -1.3340    0.8000 c         1 MOL      0.645624
     56 O9          8.5490   -1.1600    1.4400 o         1 MOL     -0.567177
     57 H25         4.8230   -3.0550    0.2720 hn        1 MOL      0.101333
     58 H26         7.3520   -3.4850    1.1910 h1        1 MOL      0.148441
     59 H27         6.1180   -2.4190    2.0040 h1        1 MOL      0.148441
     60 N6          7.0170   -0.3620    0.0360 n         1 MOL     -0.555794
     61 C19         7.6600    0.8520   -0.3210 c3        1 MOL      0.277720
     62 C20         6.5420    1.9030   -0.2140 c         1 MOL      0.472656
     63 O10         5.3720    1.5870   -0.3190 o         1 MOL     -0.381224
     64 C21         8.1100    0.8780   -1.7580 c3        1 MOL     -0.441264
     65 C22         9.5100    0.2160   -1.9980 c         1 MOL      0.689240
     66 N7          9.6340   -1.0280   -1.6740 n         1 MOL     -0.788863
     67 O11        10.4690    0.8600   -2.4200 o         1 MOL     -0.583548
     68 H28         6.1220   -0.4630   -0.4240 hn        1 MOL      0.404802
     69 H29         8.4690    1.0970    0.3710 h1        1 MOL      0.046756
     70 H30         8.1110    1.9150   -2.0980 hc        1 MOL      0.120480
     71 H31         7.4010    0.2760   -2.3200 hc        1 MOL      0.120480
     72 H32         8.7750   -1.5080   -1.4450 hn        1 MOL      0.390177
     73 H33        10.5460   -1.4430   -1.5290 hn        1 MOL      0.390177
     74 N8          6.9250    3.1850   -0.2150 n         1 MOL     -0.553921
     75 C23         5.9570    4.2630   -0.5170 c3        1 MOL      0.132771
     76 C24         4.8050    4.4590    0.5780 c         1 MOL      0.448230
     77 O12         5.1500    4.3740    1.7460 o         1 MOL     -0.477046
     78 H34         7.8980    3.4450   -0.2100 hn        1 MOL      0.336624
     79 H35         5.5180    4.1890   -1.5140 h1        1 MOL      0.024917
     80 H36         6.4380    5.2270   -0.6790 h1        1 MOL      0.024917
     81 N9          3.5720    4.6580    0.2020 n         1 MOL     -0.480672
     82 C25         2.4360    4.4810    1.0570 c3        1 MOL      0.127387
     83 C26         1.9580    3.0830    1.3150 c         1 MOL      0.861849
     84 O13         2.4830    2.1900    0.7110 o         1 MOL     -0.664358
     85 C27         1.3150    5.3230    0.5050 c3        1 MOL     -0.145428
     86 C28         1.8150    6.7120    0.2030 ca        1 MOL      0.091947
     87 C29         2.6380    7.4820    1.0190 ca        1 MOL     -0.169930
     88 C30         1.2370    7.3790   -0.9580 ca        1 MOL     -0.169930
     89 C31         2.9230    8.8160    0.7520 ca        1 MOL     -0.267824
     90 C32         1.6280    8.6910   -1.3020 ca        1 MOL     -0.267824
     91 C33         2.5490    9.3310   -0.4760 ca        1 MOL      0.353292
     92 O14         2.9710   10.5680   -0.8270 oh        1 MOL     -0.477525
     93 H37         3.3820    4.7640   -0.7810 hn        1 MOL      0.257736
     94 H38         2.7030    4.9510    2.0120 h1        1 MOL      0.048419
     95 H39         0.4630    5.4660    1.1740 hc        1 MOL      0.040053
     96 H40         0.9520    4.8020   -0.3760 hc        1 MOL      0.040053
     97 H41         2.9860    7.0130    1.9280 ha        1 MOL      0.139448
     98 H42         0.5360    6.9120   -1.6300 ha        1 MOL      0.139448
     99 H43         3.5000    9.3920    1.4640 ha        1 MOL      0.166979
    100 H44         1.3410    9.2170   -2.1990 ha        1 MOL      0.166979
    101 H45         3.4090   10.9240   -0.0510 ho        1 MOL      0.361453
    102 N10         0.8510    2.8600    2.0780 n         1 MOL     -0.890145
    103 C34         0.1750    1.6260    2.5560 c3        1 MOL      0.343078
    104 C35        -0.2010    0.6480    1.3890 c         1 MOL      0.333837
    105 O15         0.6690    0.1030    0.6970 o         1 MOL     -0.307451
    106 C36         1.0350    0.9750    3.6730 c3        1 MOL      0.019937
    107 C37         0.3070   -0.2910    4.2360 c3        1 MOL     -0.088278
    108 C38         1.3930    1.9320    4.8160 c3        1 MOL     -0.321744
    109 C39        -1.0200   -0.0120    4.9530 c3        1 MOL     -0.239619
    110 H46         0.5300    3.6540    2.6270 hn        1 MOL      0.352205
    111 H47        -0.8140    1.8180    2.9770 h1        1 MOL      0.047497
    112 H48         2.0430    0.7620    3.3230 hc        1 MOL      0.138888
    113 H49         0.9020   -0.9210    4.9070 hc        1 MOL      0.087101
    114 H50         0.0680   -0.9950    3.4390 hc        1 MOL      0.087101
    115 H51         0.4080    2.3460    5.0330 hc        1 MOL      0.090032
    116 H52         1.8510    1.4430    5.6670 hc        1 MOL      0.090032
    117 H53         2.0520    2.6710    4.3540 hc        1 MOL      0.090032
    118 H54        -1.6980    0.5160    4.2900 hc        1 MOL      0.059025
    119 H55        -1.5460   -0.9230    5.2390 hc        1 MOL      0.059025
    120 H56        -0.8790    0.5660    5.8670 hc        1 MOL      0.059025
    121 N11        -1.4530    0.2300    1.2910 n         1 MOL     -0.446300
    122 C40        -1.9600   -1.0060    0.6320 c3        1 MOL      0.023681
    123 C41        -3.3490   -0.7560   -0.0500 c         1 MOL      0.683875
    124 O16        -3.6880   -1.5100   -0.9770 o         1 MOL     -0.566689
    125 C42        -2.0770   -2.2250    1.5810 c3        1 MOL     -0.107690
    126 O17        -1.7070   -3.4580    0.9160 oh        1 MOL     -0.415895
    127 H57        -2.1370    0.7800    1.8050 hn        1 MOL      0.237204
    128 H58        -1.2380   -1.3600   -0.1080 h1        1 MOL      0.129145
    129 H59        -3.1280   -2.3070    1.8330 h1        1 MOL      0.094635
    130 H60        -1.5090   -2.0840    2.5040 h1        1 MOL      0.094635
    131 H61        -1.4550   -3.9470    1.6920 ho        1 MOL      0.333944
    132 N12        -4.0820    0.2360    0.3940 n         1 MOL     -0.618216
    133 C43        -5.4500    0.3990    0.0270 c3        1 MOL      0.058923
    134 C44        -5.6100    1.2040   -1.2980 c         1 MOL      0.654770
    135 O18        -4.7670    1.9090   -1.6660 o         1 MOL     -0.557592
    136 C45        -6.1530    1.0420    1.2190 c3        1 MOL     -0.431812
    137 H62        -3.7890    0.7920    1.1910 hn        1 MOL      0.359951
    138 H63        -5.9090   -0.5700   -0.1730 h1        1 MOL      0.122750
    139 H64        -7.2310    1.1240    1.1880 hc        1 MOL      0.133019
    140 H65        -5.8730    0.5100    2.1390 hc        1 MOL      0.133019
    141 H66        -5.7300    2.0280    1.3720 hc        1 MOL      0.133019
    142 N13        -6.6270    0.9560   -2.0760 n         1 MOL     -0.594254
    143 C46        -7.8110    0.2160   -1.7640 c3        1 MOL      0.415879
    144 C47        -9.0130    0.8960   -2.5060 c         1 MOL      0.195717
    145 O19        -8.8850    1.2150   -3.6970 o         1 MOL     -0.503875
    146 C48        -7.6130   -1.2560   -2.2440 c3        1 MOL     -0.009751
    147 H67        -6.5910    1.3960   -2.9900 hn        1 MOL      0.319343
    148 H68        -8.0560    0.2860   -0.7040 h1        1 MOL     -0.078190
    149 H69        -7.2180   -1.3240   -3.2600 hc        1 MOL     -0.005247
    150 H70        -6.8360   -1.6770   -1.6130 hc        1 MOL     -0.005247
    151 H71        -8.5280   -1.8510   -2.1440 hc        1 MOL     -0.005247
    152 N14       -10.2470    0.8830   -2.0540 n         1 MOL     -0.117375
    153 C49       -10.8160    0.4380   -0.7760 c3        1 MOL     -0.267560
    154 C50       -10.2240    1.2370    0.3540 c         1 MOL      0.363787
    155 O20        -9.9520    0.7050    1.4710 o         1 MOL     -0.499634
    156 C51       -12.3380    0.5200   -0.9000 c3        1 MOL      0.133878
    157 C52       -13.0750    0.1760    0.3950 c3        1 MOL     -0.391221
    158 C53       -14.5350   -0.2520    0.1620 c         1 MOL      0.769607
    159 O21       -14.7370   -1.2900   -0.4650 o         1 MOL     -0.693833
    160 O22       -15.5290    0.3420    0.6240 o         1 MOL     -0.693833
    161 H72       -10.9240    1.2480   -2.7170 hn        1 MOL      0.235809
    162 H73       -10.5520   -0.6100   -0.6780 h1        1 MOL      0.164351
    163 H74       -12.5850   -0.2640   -1.6240 hc        1 MOL      0.010320
    164 H75       -12.7150    1.4640   -1.2930 hc        1 MOL      0.010320
    165 H76       -12.9430    1.0400    1.0370 hc        1 MOL      0.096072
    166 H77       -12.5960   -0.6700    0.9000 hc        1 MOL      0.096072
    167 N15       -10.1760    2.5530    0.2150 n         1 MOL     -0.105123
    168 C54        -9.6820    3.4750    1.2150 c3        1 MOL     -0.193891
    169 H78        -8.8380    4.0320    0.8080 h1        1 MOL      0.093340
    170 H79       -10.4750    4.1680    1.4940 h1        1 MOL      0.093340
    171 H80        -9.3580    2.9190    2.0940 h1        1 MOL      0.093340
    172 H81       -10.4390    2.9340   -0.6780 hn        1 MOL      0.193987
    173 Ca1         2.6210    0.3410   -1.0200 Ca        1 MOL      1.736162
    174 O23         3.5670    1.9370   -2.9160 oh        1 MOL     -0.865050
    175 O24         0.5450   -1.2330   -2.1390 oh        1 MOL     -0.865050
    176 H82         3.3440    2.8640   -3.0470 ho        1 MOL      0.425418
    177 H83        -0.0870   -0.9860   -2.8150 ho        1 MOL      0.425418
    178 H84         4.2060    1.7510   -3.6020 ho        1 MOL      0.425418
    179 H85         1.2620   -1.6590   -2.6140 ho        1 MOL      0.425418
    180 O25         0.7090    1.7830   -2.1720 oh        1 MOL     -0.865050
    181 H86         0.9580    2.3970   -2.8610 ho        1 MOL      0.425418
    182 H87        -0.2400    1.8570   -2.1020 ho        1 MOL      0.425418
@<TRIPOS>BOND
     1    1    2 1   
     2    1    4 1   
     3    1    5 1   
     4    1    6 1   
     5    2    3 2   
     6    2    7 1   
     7    7    8 1   
     8    7   15 1   
     9    8    9 1   
    10    8   11 1   
    11    8   16 1   
    12    9   10 2   
    13    9   19 1   
    14   11   12 1   
    15   11   17 1   
    16   11   18 1   
    17   12   13 1   
    18   12   14 1   
    19   19   20 1   
    20   19   28 1   
    21   20   21 1   
    22   20   23 1   
    23   20   29 1   
    24   21   22 2   
    25   21   41 1   
    26   23   24 1   
    27   23   30 1   
    28   23   31 1   
    29   24   25 1   
    30   24   32 1   
    31   24   33 1   
    32   25   26 1   
    33   25   34 1   
    34   25   35 1   
    35   26   27 1   
    36   26   36 1   
    37   26   37 1   
    38   27   38 1   
    39   27   39 1   
    40   27   40 1   
    41   41   42 1   
    42   41   49 1   
    43   42   43 1   
    44   42   45 1   
    45   42   50 1   
    46   43   44 2   
    47   43   53 1   
    48   45   46 1   
    49   45   51 1   
    50   45   52 1   
    51   46   47 1   
    52   46   48 1   
    53   53   54 1   
    54   53   57 1   
    55   54   55 1   
    56   54   58 1   
    57   54   59 1   
    58   55   56 2   
    59   55   60 1   
    60   60   61 1   
    61   60   68 1   
    62   61   62 1   
    63   61   64 1   
    64   61   69 1   
    65   62   63 2   
    66   62   74 1   
    67   64   65 1   
    68   64   70 1   
    69   64   71 1   
    70   65   66 1   
    71   65   67 2   
    72   66   72 1   
    73   66   73 1   
    74   74   75 1   
    75   74   78 1   
    76   75   76 1   
    77   75   79 1   
    78   75   80 1   
    79   76   77 2   
    80   76   81 1   
    81   81   82 1   
    82   81   93 1   
    83   82   83 1   
    84   82   85 1   
    85   82   94 1   
    86   83   84 2   
    87   83  102 1   
    88   85   86 1   
    89   85   95 1   
    90   85   96 1   
    91   86   87 ar  
    92   86   88 ar  
    93   87   89 ar  
    94   87   97 1   
    95   88   90 ar  
    96   88   98 1   
    97   89   91 ar  
    98   89   99 1   
    99   90   91 ar  
   100   90  100 1   
   101   91   92 1   
   102   92  101 1   
   103  102  103 1   
   104  102  110 1   
   105  103  104 1   
   106  103  106 1   
   107  103  111 1   
   108  104  105 2   
   109  104  121 1   
   110  106  107 1   
   111  106  108 1   
   112  106  112 1   
   113  107  109 1   
   114  107  113 1   
   115  107  114 1   
   116  108  115 1   
   117  108  116 1   
   118  108  117 1   
   119  109  118 1   
   120  109  119 1   
   121  109  120 1   
   122  121  122 1   
   123  121  127 1   
   124  122  123 1   
   125  122  125 1   
   126  122  128 1   
   127  123  124 2   
   128  123  132 1   
   129  125  126 1   
   130  125  129 1   
   131  125  130 1   
   132  126  131 1   
   133  132  133 1   
   134  132  137 1   
   135  133  134 1   
   136  133  136 1   
   137  133  138 1   
   138  134  135 2   
   139  134  142 1   
   140  136  139 1   
   141  136  140 1   
   142  136  141 1   
   143  142  143 1   
   144  142  147 1   
   145  143  144 1   
   146  143  146 1   
   147  143  148 1   
   148  144  145 2   
   149  144  152 1   
   150  146  149 1   
   151  146  150 1   
   152  146  151 1   
   153  152  153 1   
   154  152  161 1   
   155  153  154 1   
   156  153  156 1   
   157  153  162 1   
   158  154  155 2   
   159  154  167 1   
   160  156  157 1   
   161  156  163 1   
   162  156  164 1   
   163  157  158 1   
   164  157  165 1   
   165  157  166 1   
   166  158  159 1   
   167  158  160 1   
   168  167  168 1   
   169  167  172 1   
   170  168  169 1   
   171  168  170 1   
   172  168  171 1   
   173  174  176 1   
   174  174  178 1   
   175  175  177 1   
   176  175  179 1   
   177  180  181 1   
   178  180  182 1   
@<TRIPOS>SUBSTRUCTURE
     1 MOL         1 TEMP              0 ****  ****    0 ROOT
