@<TRIPOS>MOLECULE
MOL
  201   193     1     0     0
SMALL
resp


@<TRIPOS>ATOM
      1 C1         -0.2780    7.5180   -3.0400 c3        1 MOL     -0.382309
      2 C2          1.0080    6.9980   -2.2580 c         1 MOL      0.678955
      3 O1          1.8890    7.8030   -1.9760 o         1 MOL     -0.573903
      4 H1         -1.1450    6.9270   -2.7460 hc        1 MOL      0.101145
      5 H2         -0.4530    8.5660   -2.7970 hc        1 MOL      0.101145
      6 H3         -0.1170    7.4160   -4.1130 hc        1 MOL      0.101145
      7 N1          1.0330    5.7120   -1.8260 n         1 MOL     -0.576678
      8 C3          2.1780    5.2050   -1.0380 c3        1 MOL      0.086992
      9 C4          2.3990    3.6710   -1.2820 c         1 MOL      0.384396
     10 O2          1.4710    2.9520   -1.7650 o         1 MOL     -0.574268
     11 C5          1.9960    5.5050    0.4260 c3        1 MOL      0.487189
     12 C6          0.5760    5.3630    0.9900 c         1 MOL      0.338896
     13 O3          0.0640    6.3800    1.5520 o         1 MOL     -0.625162
     14 O4          0.0080    4.2120    1.0430 o         1 MOL     -0.625162
     15 H4          0.1690    5.1910   -1.9460 hn        1 MOL      0.325925
     16 H5          3.0930    5.7570   -1.2100 h1        1 MOL      0.002854
     17 H6          2.3170    6.5310    0.6150 hc        1 MOL     -0.102431
     18 H7          2.6960    4.8970    0.9960 hc        1 MOL     -0.102431
     19 N2          3.5830    3.2120   -0.9380 n         1 MOL     -0.410041
     20 C7          4.0840    1.8490   -0.7850 c3        1 MOL      0.200779
     21 C8          4.6300    1.4950    0.5490 c         1 MOL      0.361298
     22 O5          5.6850    0.8460    0.6620 o         1 MOL     -0.540044
     23 C9          4.9840    1.5560   -2.0200 c3        1 MOL      0.074880
     24 C10         6.1610    2.5290   -2.2890 c3        1 MOL     -0.239078
     25 C11         7.2610    2.0540   -3.2140 c3        1 MOL      0.218115
     26 C12         8.2700    3.1130   -3.5990 c3        1 MOL      0.015525
     27 N3          9.2230    2.6320   -4.6520 n4        1 MOL     -0.251072
     28 H8          4.2060    3.9590   -0.6850 hn        1 MOL      0.256586
     29 H9          3.1930    1.2550   -0.9310 h1        1 MOL      0.020912
     30 H10         4.4070    1.5220   -2.9460 hc        1 MOL      0.022689
     31 H11         5.4450    0.5890   -1.8230 hc        1 MOL      0.022689
     32 H12         6.6980    2.7560   -1.3640 hc        1 MOL      0.049483
     33 H13         5.7840    3.4760   -2.6870 hc        1 MOL      0.049483
     34 H14         6.8060    1.6990   -4.1370 hc        1 MOL     -0.034595
     35 H15         7.8020    1.2540   -2.7080 hc        1 MOL     -0.034595
     36 H16         8.7990    3.4120   -2.6950 hx        1 MOL      0.079754
     37 H17         7.7680    3.9830   -4.0340 hx        1 MOL      0.079754
     38 H18         9.7860    1.8440   -4.3860 hn        1 MOL      0.255278
     39 H19         8.8020    2.3880   -5.5350 hn        1 MOL      0.255278
     40 H20         9.8650    3.3600   -4.9410 hn        1 MOL      0.255278
     41 N4          3.9340    1.8240    1.6370 n         1 MOL     -0.137523
     42 C13         4.3650    1.4670    2.9740 c3        1 MOL     -0.027118
     43 C14         3.4040    0.5320    3.7400 c         1 MOL      0.573596
     44 O6          2.1710    0.6600    3.5060 o         1 MOL     -0.777958
     45 C15         4.6110    2.8290    3.7440 c3        1 MOL     -0.175545
     46 C16         3.5620    3.9290    3.5710 c         1 MOL      0.633547
     47 O7          3.9480    5.0730    3.9920 o         1 MOL     -0.636166
     48 O8          2.3910    3.6940    3.0820 o         1 MOL     -0.636166
     49 H21         3.1240    2.3860    1.4520 hn        1 MOL      0.144169
     50 H22         5.3400    0.9770    3.0490 h1        1 MOL      0.099445
     51 H23         5.5780    3.2330    3.4390 hc        1 MOL      0.058601
     52 H24         4.7740    2.7290    4.8110 hc        1 MOL      0.058601
     53 N5          3.8810   -0.4460    4.5630 n         1 MOL     -0.401597
     54 C17         5.3140   -0.7700    4.8630 c3        1 MOL     -0.089245
     55 C18         5.9600   -1.8430    3.9600 c         1 MOL      0.576668
     56 O9          7.1230   -2.0650    3.9990 o         1 MOL     -0.530463
     57 H25         3.2000   -1.0410    5.0120 hn        1 MOL      0.309092
     58 H26         5.3690   -0.9560    5.9440 h1        1 MOL      0.093138
     59 H27         6.0020    0.0730    4.7210 h1        1 MOL      0.093138
     60 N6          5.1790   -2.5330    3.1720 n         1 MOL     -0.362639
     61 C19         5.6970   -3.5910    2.3430 c3        1 MOL     -0.083878
     62 C20         4.6710   -4.0270    1.3390 c         1 MOL      0.534137
     63 O10         3.5460   -3.5350    1.2800 o         1 MOL     -0.533246
     64 C21         6.2300   -4.8080    3.1830 c3        1 MOL     -0.207251
     65 C22         5.1570   -5.3660    4.0920 c         1 MOL      0.714989
     66 O11         5.2850   -5.4440    5.3270 o         1 MOL     -0.659263
     67 O12         4.1120   -5.8670    3.5880 o         1 MOL     -0.659263
     68 H28         4.1690   -2.5080    3.2700 hn        1 MOL      0.268894
     69 H29         6.5470   -3.1370    1.8190 h1        1 MOL      0.112363
     70 H30         7.0250   -4.5210    3.8620 hc        1 MOL      0.059606
     71 H31         6.7830   -5.5830    2.6530 hc        1 MOL      0.059606
     72 N7          4.9960   -4.9420    0.4190 n         1 MOL     -0.419022
     73 C23         4.1770   -5.8400   -0.4850 c3        1 MOL     -0.046783
     74 C24         3.6440   -5.2160   -1.8040 c         1 MOL      0.489592
     75 O13         2.9120   -5.8200   -2.5440 o         1 MOL     -0.531113
     76 H32         5.9800   -5.0970    0.2680 hn        1 MOL      0.266821
     77 H33         3.3790   -6.1410    0.1980 h1        1 MOL      0.104012
     78 H34         4.6790   -6.7710   -0.7510 h1        1 MOL      0.104012
     79 N8          3.8310   -3.8850   -2.0440 n         1 MOL     -0.286011
     80 C25         3.4870   -3.1720   -3.2400 c3        1 MOL      0.041490
     81 C26         2.8870   -1.7990   -2.9360 c         1 MOL      0.319206
     82 O14         3.1280   -1.2500   -1.8880 o         1 MOL     -0.438035
     83 C27         4.7600   -2.8730   -4.1330 c3        1 MOL      0.318025
     84 C28         5.7160   -1.8770   -3.5420 c3        1 MOL     -0.297487
     85 O15         5.5040   -4.0040   -4.4030 oh        1 MOL     -0.581349
     86 H35         4.2220   -3.2980   -1.3270 hn        1 MOL      0.199005
     87 H36         2.8540   -3.7890   -3.8630 h1        1 MOL      0.056659
     88 H37         4.4530   -2.4020   -5.0620 h1        1 MOL     -0.033938
     89 H38         5.0650   -4.4310   -5.1390 ho        1 MOL      0.380162
     90 H39         5.9460   -2.0600   -2.4890 hc        1 MOL      0.082529
     91 H40         6.6670   -1.9400   -4.0620 hc        1 MOL      0.082529
     92 H41         5.3410   -0.8630   -3.6410 hc        1 MOL      0.082529
     93 N9          2.0230   -1.2970   -3.8930 n         1 MOL     -0.330688
     94 C29         1.0050   -0.2400   -3.6440 c3        1 MOL     -0.038402
     95 C30         0.1230   -0.6190   -2.4700 c         1 MOL      0.694391
     96 O16        -0.2980    0.2170   -1.6680 o         1 MOL     -0.571145
     97 C31         0.1810    0.0110   -4.9630 c3        1 MOL      0.134815
     98 C32         1.0550    0.0590   -6.2610 c3        1 MOL     -0.246992
     99 C33        -0.6370    1.2600   -4.8480 c3        1 MOL     -0.314519
    100 C34         2.3310    0.9360   -6.3060 c3        1 MOL     -0.389201
    101 H42         1.7620   -1.8740   -4.6690 hn        1 MOL      0.241087
    102 H43         1.5500    0.6290   -3.2760 h1        1 MOL      0.160934
    103 H44        -0.5410   -0.7850   -5.0850 hc        1 MOL      0.005404
    104 H45         0.4590    0.3670   -7.1220 hc        1 MOL      0.106751
    105 H46         1.4710   -0.9390   -6.3550 hc        1 MOL      0.106751
    106 H47        -0.0610    2.1330   -5.1490 hc        1 MOL      0.099306
    107 H48        -1.3030    1.2480   -5.7160 hc        1 MOL      0.099306
    108 H49        -1.2290    1.4150   -3.9500 hc        1 MOL      0.099306
    109 H50         2.8450    0.7440   -7.2390 hc        1 MOL      0.115984
    110 H51         2.0710    1.9960   -6.3860 hc        1 MOL      0.115984
    111 H52         2.8610    0.9160   -5.3500 hc        1 MOL      0.115984
    112 N10        -0.2050   -1.8950   -2.1670 n         1 MOL     -0.596776
    113 C35        -1.2650   -2.3080   -1.2310 c3        1 MOL      0.116441
    114 C36        -2.1290   -3.4440   -1.8220 c         1 MOL      0.581192
    115 O17        -1.7910   -4.0680   -2.8470 o         1 MOL     -0.488174
    116 C37        -0.6000   -2.8340    0.0950 c3        1 MOL      0.363874
    117 C38         0.4620   -3.9690   -0.0340 c3        1 MOL     -0.559693
    118 O18        -0.0960   -1.8180    0.9040 oh        1 MOL     -0.598347
    119 H53         0.3570   -2.5810   -2.6520 hn        1 MOL      0.242025
    120 H54        -1.9250   -1.5060   -0.9030 h1        1 MOL      0.074942
    121 H55        -1.3880   -3.2620    0.7230 h1        1 MOL      0.020699
    122 H56         0.8290   -1.8860    0.6570 ho        1 MOL      0.350108
    123 H57         0.7650   -4.3710    0.9400 hc        1 MOL      0.172014
    124 H58         0.1040   -4.6710   -0.7850 hc        1 MOL      0.172014
    125 H59         1.3490   -3.5910   -0.5410 hc        1 MOL      0.172014
    126 N11        -3.3530   -3.5540   -1.1830 n         1 MOL     -0.651398
    127 C39        -4.5780   -4.3590   -1.5960 c3        1 MOL      0.087046
    128 C40        -5.8450   -3.4920   -1.6420 c         1 MOL      0.544424
    129 O19        -6.6050   -3.5770   -2.6030 o         1 MOL     -0.523153
    130 C41        -4.8220   -5.5790   -0.6750 c3        1 MOL      0.388436
    131 C42        -6.1950   -6.2930   -0.7800 c3        1 MOL     -0.497746
    132 O20        -4.6270   -5.1220    0.6300 oh        1 MOL     -0.622263
    133 H60        -3.5290   -2.8670   -0.4660 hn        1 MOL      0.312684
    134 H61        -4.4260   -4.8220   -2.5780 h1        1 MOL      0.063024
    135 H62        -4.0720   -6.3200   -0.9440 h1        1 MOL      0.011753
    136 H63        -3.6950   -5.2070    0.8190 ho        1 MOL      0.378238
    137 H64        -6.1680   -7.2650   -0.2830 hc        1 MOL      0.140854
    138 H65        -7.0890   -5.7560   -0.4730 hc        1 MOL      0.140854
    139 H66        -6.3470   -6.3770   -1.8540 hc        1 MOL      0.140854
    140 N12        -6.1640   -2.8210   -0.5100 n         1 MOL     -0.465919
    141 C43        -7.2230   -1.8390   -0.2820 c3        1 MOL      0.039778
    142 C44        -6.7700   -0.5090    0.3710 c         1 MOL      0.616297
    143 O21        -6.1110   -0.5410    1.3510 o         1 MOL     -0.508319
    144 C45        -8.4400   -2.4980    0.4380 c3        1 MOL      0.061122
    145 C46        -9.6680   -1.6390    0.3710 c3        1 MOL      0.025170
    146 C47       -10.9050   -2.1650    1.0130 c3        1 MOL     -0.142976
    147 C48       -10.7010   -2.0050    2.4900 c3        1 MOL      0.123141
    148 N13       -11.7930   -2.7090    3.2080 n4        1 MOL     -0.404222
    149 H67        -5.4110   -2.6550    0.1400 hn        1 MOL      0.246332
    150 H68        -7.5790   -1.5940   -1.2900 h1        1 MOL      0.061431
    151 H69        -8.1850   -2.5750    1.4910 hc        1 MOL      0.004674
    152 H70        -8.5610   -3.5200    0.0760 hc        1 MOL      0.004674
    153 H71        -9.8400   -1.4440   -0.6880 hc        1 MOL      0.012419
    154 H72        -9.3600   -0.7190    0.8670 hc        1 MOL      0.012419
    155 H73       -11.1050   -3.1860    0.6880 hc        1 MOL      0.072092
    156 H74       -11.6790   -1.4790    0.6780 hc        1 MOL      0.072092
    157 H75       -10.5860   -0.9640    2.7920 hx        1 MOL      0.065247
    158 H76        -9.7020   -2.3730    2.7200 hx        1 MOL      0.065247
    159 H77       -11.8790   -2.3700    4.1560 hn        1 MOL      0.300811
    160 H78       -12.6830   -2.4610    2.8080 hn        1 MOL      0.300811
    161 H79       -11.6580   -3.7020    3.2830 hn        1 MOL      0.300811
    162 N14        -7.2590    0.6510   -0.1690 n         1 MOL     -0.661281
    163 C49        -6.9260    1.9850    0.2940 c3        1 MOL      0.569134
    164 C50        -5.3980    2.3090    0.1140 c         1 MOL      0.135246
    165 O22        -4.7090    2.5630    1.0630 o         1 MOL     -0.423440
    166 C51        -7.8460    3.0510   -0.4460 c3        1 MOL     -0.467538
    167 C52        -9.2740    3.1280    0.2270 c3        1 MOL     -0.208234
    168 C53       -10.2170    3.6680   -0.8450 c         1 MOL      0.702710
    169 O23       -10.3640    4.9250   -1.0060 o         1 MOL     -0.675920
    170 O24       -10.9950    2.8470   -1.3920 o         1 MOL     -0.675920
    171 H80        -7.8810    0.5040   -0.9430 hn        1 MOL      0.294395
    172 H81        -7.0180    2.0610    1.3790 h1        1 MOL     -0.021713
    173 H82        -7.7930    2.7050   -1.4740 hc        1 MOL      0.175539
    174 H83        -7.3040    3.9930   -0.4200 hc        1 MOL      0.175539
    175 H84        -9.2600    3.8670    1.0320 hc        1 MOL      0.067276
    176 H85        -9.5630    2.1650    0.6450 hc        1 MOL      0.067276
    177 N15        -4.8070    2.1950   -1.1000 n         1 MOL     -0.218972
    178 C54        -5.4200    1.9560   -2.4560 c3        1 MOL     -0.068204
    179 H86        -6.4640    1.6680   -2.3370 h1        1 MOL      0.055290
    180 H87        -5.3610    2.8680   -3.0480 h1        1 MOL      0.055290
    181 H88        -4.8790    1.1570   -2.9640 h1        1 MOL      0.055290
    182 H89        -3.8160    2.3710   -1.0140 hn        1 MOL      0.236936
    183 Ca1         0.2440    2.3310    2.9510 Ca        1 MOL      1.767215
    184 O25        -1.9770    2.2470    4.5560 oh        1 MOL     -0.844744
    185 H90        -2.9270    2.2500    4.7120 ho        1 MOL      0.417389
    186 H91        -1.6120    1.8490    5.3420 ho        1 MOL      0.417389
    187 O26        -1.9480    2.2890    1.3510 oh        1 MOL     -0.844744
    188 O27        -0.4350   -0.3190    3.0460 oh        1 MOL     -0.844744
    189 H92        -1.7620    2.1880    0.4240 ho        1 MOL      0.417389
    190 H93         0.1680   -0.7470    3.6580 ho        1 MOL      0.417389
    191 H94        -2.8480    2.6080    1.3920 ho        1 MOL      0.417389
    192 H95        -0.3460   -0.8110    2.2350 ho        1 MOL      0.417389
    193 O28         1.0440    1.1690    0.7700 oh        1 MOL     -0.844744
    194 H96         0.6930    0.9810   -0.1030 ho        1 MOL      0.417389
    195 H97         1.3550    0.3260    1.0980 ho        1 MOL      0.417389
    196 O29         0.5000    1.3950    5.6500 oh        1 MOL     -0.844744
    197 H98         0.8640    0.5080    5.6550 ho        1 MOL      0.417389
    198 H99         0.5630    1.6900    6.5610 ho        1 MOL      0.417389
    199 O30         0.2800    4.4500    5.0260 oh        1 MOL     -0.844744
    200 H100        1.0590    4.9700    5.2050 ho        1 MOL      0.417389
    201 H101       -0.4140    4.8700    5.5310 ho        1 MOL      0.417389
@<TRIPOS>BOND
     1    1    2 1   
     2    1    4 1   
     3    1    5 1   
     4    1    6 1   
     5    2    3 2   
     6    2    7 1   
     7    7    8 1   
     8    7   15 1   
     9    8    9 1   
    10    8   11 1   
    11    8   16 1   
    12    9   10 2   
    13    9   19 1   
    14   11   12 1   
    15   11   17 1   
    16   11   18 1   
    17   12   13 1   
    18   12   14 1   
    19   19   20 1   
    20   19   28 1   
    21   20   21 1   
    22   20   23 1   
    23   20   29 1   
    24   21   22 2   
    25   21   41 1   
    26   23   24 1   
    27   23   30 1   
    28   23   31 1   
    29   24   25 1   
    30   24   32 1   
    31   24   33 1   
    32   25   26 1   
    33   25   34 1   
    34   25   35 1   
    35   26   27 1   
    36   26   36 1   
    37   26   37 1   
    38   27   38 1   
    39   27   39 1   
    40   27   40 1   
    41   41   42 1   
    42   41   49 1   
    43   42   43 1   
    44   42   45 1   
    45   42   50 1   
    46   43   44 2   
    47   43   53 1   
    48   45   46 1   
    49   45   51 1   
    50   45   52 1   
    51   46   47 1   
    52   46   48 1   
    53   53   54 1   
    54   53   57 1   
    55   54   55 1   
    56   54   58 1   
    57   54   59 1   
    58   55   56 2   
    59   55   60 1   
    60   60   61 1   
    61   60   68 1   
    62   61   62 1   
    63   61   64 1   
    64   61   69 1   
    65   62   63 2   
    66   62   72 1   
    67   64   65 1   
    68   64   70 1   
    69   64   71 1   
    70   65   66 1   
    71   65   67 1   
    72   72   73 1   
    73   72   76 1   
    74   73   74 1   
    75   73   77 1   
    76   73   78 1   
    77   74   75 2   
    78   74   79 1   
    79   79   80 1   
    80   79   86 1   
    81   80   81 1   
    82   80   83 1   
    83   80   87 1   
    84   81   82 2   
    85   81   93 1   
    86   83   84 1   
    87   83   85 1   
    88   83   88 1   
    89   84   90 1   
    90   84   91 1   
    91   84   92 1   
    92   85   89 1   
    93   93   94 1   
    94   93  101 1   
    95   94   95 1   
    96   94   97 1   
    97   94  102 1   
    98   95   96 2   
    99   95  112 1   
   100   97   98 1   
   101   97   99 1   
   102   97  103 1   
   103   98  100 1   
   104   98  104 1   
   105   98  105 1   
   106   99  106 1   
   107   99  107 1   
   108   99  108 1   
   109  100  109 1   
   110  100  110 1   
   111  100  111 1   
   112  112  113 1   
   113  112  119 1   
   114  113  114 1   
   115  113  116 1   
   116  113  120 1   
   117  114  115 2   
   118  114  126 1   
   119  116  117 1   
   120  116  118 1   
   121  116  121 1   
   122  117  123 1   
   123  117  124 1   
   124  117  125 1   
   125  118  122 1   
   126  126  127 1   
   127  126  133 1   
   128  127  128 1   
   129  127  130 1   
   130  127  134 1   
   131  128  129 2   
   132  128  140 1   
   133  130  131 1   
   134  130  132 1   
   135  130  135 1   
   136  131  137 1   
   137  131  138 1   
   138  131  139 1   
   139  132  136 1   
   140  140  141 1   
   141  140  149 1   
   142  141  142 1   
   143  141  144 1   
   144  141  150 1   
   145  142  143 2   
   146  142  162 1   
   147  144  145 1   
   148  144  151 1   
   149  144  152 1   
   150  145  146 1   
   151  145  153 1   
   152  145  154 1   
   153  146  147 1   
   154  146  155 1   
   155  146  156 1   
   156  147  148 1   
   157  147  157 1   
   158  147  158 1   
   159  148  159 1   
   160  148  160 1   
   161  148  161 1   
   162  162  163 1   
   163  162  171 1   
   164  163  164 1   
   165  163  166 1   
   166  163  172 1   
   167  164  165 2   
   168  164  177 1   
   169  166  167 1   
   170  166  173 1   
   171  166  174 1   
   172  167  168 1   
   173  167  175 1   
   174  167  176 1   
   175  168  169 1   
   176  168  170 1   
   177  177  178 1   
   178  177  182 1   
   179  178  179 1   
   180  178  180 1   
   181  178  181 1   
   182  184  185 1   
   183  184  186 1   
   184  187  189 1   
   185  187  191 1   
   186  188  190 1   
   187  188  192 1   
   188  193  194 1   
   189  193  195 1   
   190  196  197 1   
   191  196  198 1   
   192  199  200 1   
   193  199  201 1   
@<TRIPOS>SUBSTRUCTURE
     1 MOL         1 TEMP              0 ****  ****    0 ROOT
