@<TRIPOS>MOLECULE
MOL
  181   177     1     0     0
SMALL
resp


@<TRIPOS>ATOM
      1 C1         -5.1420   -2.4440   -4.6180 c3        1 MOL     -0.366553
      2 C2         -6.5430   -1.9500   -4.0540 c         1 MOL      0.649305
      3 O1         -6.8850   -0.7390   -4.1360 o         1 MOL     -0.590839
      4 H1         -5.0610   -3.5240   -4.4930 hc        1 MOL      0.090651
      5 H2         -5.0670   -2.1940   -5.6770 hc        1 MOL      0.090651
      6 H3         -4.3360   -1.9540   -4.0700 hc        1 MOL      0.090651
      7 N1         -7.3570   -2.8040   -3.4000 n         1 MOL     -0.607759
      8 C3         -8.6530   -2.3070   -2.7800 c3        1 MOL      0.322948
      9 C4         -8.3470   -1.8020   -1.3390 c         1 MOL      0.523920
     10 O2         -8.3380   -2.6170   -0.4040 o         1 MOL     -0.576146
     11 C5         -9.6890   -3.4180   -2.6390 c3        1 MOL     -0.387242
     12 C6        -11.0670   -3.0670   -2.0870 c         1 MOL      0.826507
     13 O3        -11.3870   -1.8700   -2.0810 o         1 MOL     -0.751637
     14 O4        -11.9030   -3.9350   -1.8310 o         1 MOL     -0.751637
     15 H4         -7.0240   -3.7340   -3.1680 hn        1 MOL      0.329569
     16 H5         -9.1170   -1.4280   -3.2240 h1        1 MOL      0.003846
     17 H6         -9.3050   -4.3010   -2.1370 hc        1 MOL      0.047035
     18 H7         -9.9090   -3.7630   -3.6480 hc        1 MOL      0.047035
     19 N2         -7.9970   -0.5500   -1.1720 n         1 MOL     -0.522795
     20 C7         -7.7790    0.0960    0.1250 c3        1 MOL      0.241732
     21 C8         -6.3880   -0.0000    0.7040 c         1 MOL      0.585955
     22 O5         -5.4080    0.2870    0.0060 o         1 MOL     -0.589950
     23 C9         -8.1960    1.5680    0.0600 c3        1 MOL     -0.419467
     24 H8         -8.1570    0.0170   -2.0030 hn        1 MOL      0.323729
     25 H9         -8.4550   -0.3180    0.8760 h1        1 MOL      0.058051
     26 H10        -7.8060    2.0820   -0.8230 hc        1 MOL      0.102045
     27 H11        -9.2790    1.6590    0.1740 hc        1 MOL      0.102045
     28 H12        -7.8340    2.0400    0.9660 hc        1 MOL      0.102045
     29 N3         -6.3270   -0.5000    1.8560 n         1 MOL     -0.536853
     30 C10        -5.0250   -0.5720    2.5700 c3        1 MOL      0.253264
     31 C11        -4.9580    0.4110    3.7900 c         1 MOL      0.330461
     32 O6         -6.0190    0.6070    4.4230 o         1 MOL     -0.513415
     33 C12        -4.7480   -2.0470    2.8970 c3        1 MOL      0.110374
     34 C13        -3.4370   -2.2730    3.7130 c         1 MOL      0.656561
     35 O7         -3.5000   -2.1610    4.9490 o         1 MOL     -0.709582
     36 O8         -2.3350   -2.4050    3.1320 o         1 MOL     -0.709582
     37 H13        -7.1740   -0.7710    2.3200 hn        1 MOL      0.289117
     38 H14        -4.2090   -0.3020    1.9120 h1        1 MOL     -0.007221
     39 H15        -4.7780   -2.6750    1.9990 hc        1 MOL     -0.054450
     40 H16        -5.5670   -2.3970    3.5220 hc        1 MOL     -0.054450
     41 N4         -3.8100    0.9920    4.1020 n         1 MOL     -0.194377
     42 C14        -3.6150    1.8070    5.2900 c3        1 MOL     -0.080054
     43 C15        -2.4660    2.8130    5.1520 c         1 MOL      0.443542
     44 O9         -1.7300    3.0140    6.0710 o         1 MOL     -0.543585
     45 H17        -2.9460    0.8260    3.5900 hn        1 MOL      0.207230
     46 H18        -3.5980    1.2070    6.2030 h1        1 MOL      0.090570
     47 H19        -4.4530    2.4800    5.4880 h1        1 MOL      0.090570
     48 N5         -2.2570    3.3500    3.9830 n         1 MOL     -0.134572
     49 C16        -1.3080    4.4220    3.6060 c3        1 MOL     -0.229471
     50 C17        -1.7000    5.2170    2.3760 c         1 MOL      0.597291
     51 O10        -2.1610    4.7340    1.3350 o         1 MOL     -0.471015
     52 C18        -0.0070    3.5980    3.3540 c3        1 MOL     -0.248970
     53 C19         1.1030    4.4110    2.7850 c         1 MOL      0.592155
     54 N6          1.6060    4.0840    1.6270 n         1 MOL     -0.731951
     55 O11         1.4920    5.4300    3.3180 o         1 MOL     -0.554677
     56 H20        -2.8830    3.1250    3.2180 hn        1 MOL      0.128588
     57 H21        -1.2210    4.9620    4.5490 h1        1 MOL      0.139716
     58 H22        -0.2050    2.7260    2.7240 hc        1 MOL      0.141416
     59 H23         0.2480    3.1870    4.3260 hc        1 MOL      0.141416
     60 H24         1.3700    3.1860    1.2270 hn        1 MOL      0.352316
     61 H25         2.0970    4.7520    1.0500 hn        1 MOL      0.352316
     62 N7         -1.4630    6.5240    2.4050 n         1 MOL     -0.499192
     63 C20        -1.3980    7.3520    1.1980 c3        1 MOL      0.084556
     64 C21        -0.0960    7.1780    0.3040 c         1 MOL      0.496381
     65 O12         1.0110    7.1000    0.8810 o         1 MOL     -0.470240
     66 H26        -1.2440    7.0260    3.2510 hn        1 MOL      0.328067
     67 H27        -1.5020    8.4110    1.4130 h1        1 MOL      0.026642
     68 H28        -2.2210    7.1150    0.5190 h1        1 MOL      0.026642
     69 N8         -0.3040    7.0380   -1.0020 n         1 MOL     -0.446034
     70 C22         0.7880    7.1740   -2.0320 c3        1 MOL     -0.177490
     71 C23         1.5460    5.8860   -2.4400 c         1 MOL      0.371335
     72 O13         2.6280    5.9880   -3.0170 o         1 MOL     -0.560333
     73 C24         0.3750    7.9370   -3.2880 c3        1 MOL      0.440020
     74 C25        -0.6250    7.0810   -4.1530 c3        1 MOL     -0.232144
     75 O14        -0.2780    9.1630   -2.8780 oh        1 MOL     -0.634450
     76 H29        -1.2320    7.1760   -1.3770 hn        1 MOL      0.291827
     77 H30         1.5420    7.8130   -1.5710 h1        1 MOL      0.147200
     78 H31         1.2110    8.2400   -3.9210 h1        1 MOL      0.047706
     79 H32        -1.1820    8.9230   -2.6470 ho        1 MOL      0.371306
     80 H33        -0.0390    6.5930   -4.9220 hc        1 MOL      0.046510
     81 H34        -1.1350    6.3330   -3.5380 hc        1 MOL      0.046510
     82 H35        -1.3610    7.7540   -4.5850 hc        1 MOL      0.046510
     83 N9          1.0250    4.7130   -2.1800 n         1 MOL      0.033068
     84 C26         1.6560    3.4480   -2.4360 c3        1 MOL     -0.060387
     85 C27         1.5110    2.4560   -1.3090 c         1 MOL      0.367702
     86 O15         0.4830    2.4710   -0.5740 o         1 MOL     -0.460123
     87 C28         1.1680    2.7980   -3.7830 c3        1 MOL      0.140681
     88 C29        -0.3650    2.6870   -3.8500 c3        1 MOL     -0.057555
     89 C30         1.6980    3.4830   -5.0740 c3        1 MOL     -0.260838
     90 C31        -0.7930    1.6060   -4.8560 c3        1 MOL      0.026450
     91 H36         0.1340    4.5290   -1.7500 hn        1 MOL      0.113509
     92 H37         2.6940    3.6730   -2.6380 h1        1 MOL      0.071595
     93 H38         1.6150    1.8000   -3.7560 hc        1 MOL     -0.002527
     94 H39        -0.8160    3.6380   -4.1290 hc        1 MOL      0.044519
     95 H40        -0.8870    2.3580   -2.9450 hc        1 MOL      0.044519
     96 H41         2.7880    3.5160   -5.0980 hc        1 MOL      0.062097
     97 H42         1.4930    2.8370   -5.9310 hc        1 MOL      0.062097
     98 H43         1.1980    4.4340   -5.2420 hc        1 MOL      0.062097
     99 H44        -1.8670    1.4730   -4.7870 hc        1 MOL     -0.003320
    100 H45        -0.6430    1.9420   -5.8880 hc        1 MOL     -0.003320
    101 H46        -0.2620    0.6690   -4.7230 hc        1 MOL     -0.003320
    102 N10         2.4820    1.5570   -1.1780 n         1 MOL     -0.599740
    103 C32         2.3310    0.3780   -0.2780 c3        1 MOL      0.368279
    104 C33         3.7340   -0.1870    0.1560 c         1 MOL      0.510628
    105 O16         3.9080   -1.3910    0.4280 o         1 MOL     -0.475384
    106 C34         1.4910   -0.7070   -1.0260 c3        1 MOL     -0.294758
    107 C35         0.7860   -1.7650   -0.1820 c         1 MOL      0.866081
    108 O17         0.6340   -1.6820    1.0920 o         1 MOL     -0.822808
    109 O18         0.2790   -2.7510   -0.8040 o         1 MOL     -0.822808
    110 H47         3.2820    1.5030   -1.7950 hn        1 MOL      0.330976
    111 H48         1.8100    0.7180    0.6170 h1        1 MOL      0.008519
    112 H49         2.2250   -1.2160   -1.6580 hc        1 MOL      0.094321
    113 H50         0.6810   -0.2310   -1.5790 hc        1 MOL      0.094321
    114 N11         4.7890    0.5800   -0.0410 n         1 MOL     -0.665108
    115 C36         6.1750    0.0750    0.1270 c3        1 MOL      0.497437
    116 C37         6.5520   -1.2150   -0.6930 c         1 MOL      0.269994
    117 O19         6.3020   -1.2260   -1.8960 o         1 MOL     -0.505983
    118 C38         7.1680    1.1390   -0.2030 c3        1 MOL     -0.252760
    119 C39         8.4440    0.9600    0.5890 ca        1 MOL      0.041923
    120 C40         8.6420    1.4040    1.9150 ca        1 MOL     -0.124439
    121 C41         9.5750    0.3220   -0.0470 ca        1 MOL     -0.124439
    122 C42         9.7990    1.1590    2.6310 ca        1 MOL     -0.111298
    123 C43        10.8080    0.2670    0.6070 ca        1 MOL     -0.111298
    124 C44        10.9170    0.6380    1.9390 ca        1 MOL     -0.136551
    125 H51         4.7240    1.5610   -0.2860 hn        1 MOL      0.287080
    126 H52         6.2770   -0.1980    1.1750 h1        1 MOL     -0.032420
    127 H53         6.7980    2.1540   -0.0500 hc        1 MOL      0.094982
    128 H54         7.3930    1.1370   -1.2660 hc        1 MOL      0.094982
    129 H55         7.7960    1.9020    2.3560 ha        1 MOL      0.106017
    130 H56         9.4630   -0.0120   -1.0740 ha        1 MOL      0.106017
    131 H57         9.8250    1.4170    3.6770 ha        1 MOL      0.115557
    132 H58        11.6180   -0.2020    0.0700 ha        1 MOL      0.115557
    133 H59        11.8340    0.3620    2.4320 ha        1 MOL      0.108706
    134 N12         7.0170   -2.2880    0.0170 n         1 MOL     -0.151392
    135 C45         7.5490   -3.5420   -0.6310 c3        1 MOL      0.202310
    136 C46         6.4190   -4.4670   -1.1030 c         1 MOL      0.172216
    137 O20         6.7780   -5.3830   -1.8380 o         1 MOL     -0.512118
    138 C47         8.4850   -4.2690    0.3820 c3        1 MOL     -0.259350
    139 C48         8.6580   -3.2680    1.5330 c3        1 MOL     -0.035898
    140 C49         7.3130   -2.4920    1.4460 c3        1 MOL     -0.014219
    141 H60         8.0480   -3.1950   -1.5340 h1        1 MOL      0.061265
    142 H61         8.0240   -5.1600    0.8190 hc        1 MOL      0.107594
    143 H62         9.4710   -4.5110   -0.0160 hc        1 MOL      0.107594
    144 H63         8.6610   -3.6750    2.5430 hc        1 MOL      0.029394
    145 H64         9.4510   -2.5400    1.3890 hc        1 MOL      0.029394
    146 H65         6.5190   -3.1190    1.8580 h1        1 MOL      0.070154
    147 H66         7.4300   -1.5610    1.9920 h1        1 MOL      0.070154
    148 N13         5.1040   -4.1650   -0.9720 n         1 MOL      0.103309
    149 C50         4.0190   -4.9070   -1.6500 c3        1 MOL     -0.462911
    150 C51         3.6460   -4.4180   -3.0990 c         1 MOL      0.607520
    151 O21         2.8060   -4.9720   -3.7870 o         1 MOL     -0.532805
    152 C52         2.7880   -4.8570   -0.6790 c3        1 MOL      0.250554
    153 C53         2.9920   -5.7090    0.5940 c3        1 MOL     -0.139881
    154 C54         1.9490   -5.3070    1.6280 c         1 MOL      0.707632
    155 O22         0.9420   -6.0060    1.8140 o         1 MOL     -0.764205
    156 O23         1.9060   -4.1940    2.1190 o         1 MOL     -0.764205
    157 H67         4.9270   -3.4050   -0.3400 hn        1 MOL      0.124856
    158 H68         4.4070   -5.9170   -1.7620 h1        1 MOL      0.183864
    159 H69         1.9770   -5.2750   -1.2640 hc        1 MOL     -0.011343
    160 H70         2.5390   -3.8400   -0.3540 hc        1 MOL     -0.011343
    161 H71         4.0020   -5.4860    0.9340 hc        1 MOL      0.005002
    162 H72         2.9140   -6.7890    0.4830 hc        1 MOL      0.005002
    163 N14         4.2280   -3.2710   -3.5260 n         1 MOL     -0.307570
    164 C55         3.9510   -2.6920   -4.8870 c3        1 MOL     -0.286232
    165 H73         4.3160   -1.6650   -4.9260 h1        1 MOL      0.115080
    166 H74         4.4590   -3.2870   -5.6450 h1        1 MOL      0.115080
    167 H75         2.8770   -2.7030   -5.0750 h1        1 MOL      0.115080
    168 H76         4.6760   -2.6290   -2.8930 hn        1 MOL      0.258907
    169 Ca1        -0.7720   -3.8580    1.6060 Ca        1 MOL      1.778875
    170 O24        -0.9210   -4.7850    4.1060 oh        1 MOL     -0.823589
    171 H77        -0.4930   -4.1360    4.6550 ho        1 MOL      0.406346
    172 H78        -0.8420   -5.5980    4.6010 ho        1 MOL      0.406346
    173 O25        -3.1320   -5.4440    1.9990 oh        1 MOL     -0.823589
    174 H79        -3.5000   -5.9470    1.2760 ho        1 MOL      0.406346
    175 H80        -3.6080   -5.7420    2.7650 ho        1 MOL      0.406346
    176 O26        -0.8880   -5.3500   -0.4990 oh        1 MOL     -0.823589
    177 H81        -1.6990   -5.1520   -0.9570 ho        1 MOL      0.406346
    178 H82        -0.2030   -5.2080   -1.1490 ho        1 MOL      0.406346
    179 O27        -2.7270   -2.9000    0.1600 oh        1 MOL     -0.823589
    180 H83        -2.9130   -2.0380   -0.2110 ho        1 MOL      0.406346
    181 H84        -3.1150   -3.5210   -0.4680 ho        1 MOL      0.406346
@<TRIPOS>BOND
     1    1    2 1   
     2    1    4 1   
     3    1    5 1   
     4    1    6 1   
     5    2    3 2   
     6    2    7 1   
     7    7    8 1   
     8    7   15 1   
     9    8    9 1   
    10    8   11 1   
    11    8   16 1   
    12    9   10 2   
    13    9   19 1   
    14   11   12 1   
    15   11   17 1   
    16   11   18 1   
    17   12   13 1   
    18   12   14 1   
    19   19   20 1   
    20   19   24 1   
    21   20   21 1   
    22   20   23 1   
    23   20   25 1   
    24   21   22 2   
    25   21   29 1   
    26   23   26 1   
    27   23   27 1   
    28   23   28 1   
    29   29   30 1   
    30   29   37 1   
    31   30   31 1   
    32   30   33 1   
    33   30   38 1   
    34   31   32 2   
    35   31   41 1   
    36   33   34 1   
    37   33   39 1   
    38   33   40 1   
    39   34   35 1   
    40   34   36 1   
    41   41   42 1   
    42   41   45 1   
    43   42   43 1   
    44   42   46 1   
    45   42   47 1   
    46   43   44 2   
    47   43   48 1   
    48   48   49 1   
    49   48   56 1   
    50   49   50 1   
    51   49   52 1   
    52   49   57 1   
    53   50   51 2   
    54   50   62 1   
    55   52   53 1   
    56   52   58 1   
    57   52   59 1   
    58   53   54 1   
    59   53   55 2   
    60   54   60 1   
    61   54   61 1   
    62   62   63 1   
    63   62   66 1   
    64   63   64 1   
    65   63   67 1   
    66   63   68 1   
    67   64   65 2   
    68   64   69 1   
    69   69   70 1   
    70   69   76 1   
    71   70   71 1   
    72   70   73 1   
    73   70   77 1   
    74   71   72 2   
    75   71   83 1   
    76   73   74 1   
    77   73   75 1   
    78   73   78 1   
    79   74   80 1   
    80   74   81 1   
    81   74   82 1   
    82   75   79 1   
    83   83   84 1   
    84   83   91 1   
    85   84   85 1   
    86   84   87 1   
    87   84   92 1   
    88   85   86 2   
    89   85  102 1   
    90   87   88 1   
    91   87   89 1   
    92   87   93 1   
    93   88   90 1   
    94   88   94 1   
    95   88   95 1   
    96   89   96 1   
    97   89   97 1   
    98   89   98 1   
    99   90   99 1   
   100   90  100 1   
   101   90  101 1   
   102  102  103 1   
   103  102  110 1   
   104  103  104 1   
   105  103  106 1   
   106  103  111 1   
   107  104  105 2   
   108  104  114 1   
   109  106  107 1   
   110  106  112 1   
   111  106  113 1   
   112  107  108 1   
   113  107  109 1   
   114  114  115 1   
   115  114  125 1   
   116  115  116 1   
   117  115  118 1   
   118  115  126 1   
   119  116  117 2   
   120  116  134 1   
   121  118  119 1   
   122  118  127 1   
   123  118  128 1   
   124  119  120 ar  
   125  119  121 ar  
   126  120  122 ar  
   127  120  129 1   
   128  121  123 ar  
   129  121  130 1   
   130  122  124 ar  
   131  122  131 1   
   132  123  124 ar  
   133  123  132 1   
   134  124  133 1   
   135  134  135 1   
   136  134  140 1   
   137  135  136 1   
   138  135  138 1   
   139  135  141 1   
   140  136  137 2   
   141  136  148 1   
   142  138  139 1   
   143  138  142 1   
   144  138  143 1   
   145  139  140 1   
   146  139  144 1   
   147  139  145 1   
   148  140  146 1   
   149  140  147 1   
   150  148  149 1   
   151  148  157 1   
   152  149  150 1   
   153  149  152 1   
   154  149  158 1   
   155  150  151 2   
   156  150  163 1   
   157  152  153 1   
   158  152  159 1   
   159  152  160 1   
   160  153  154 1   
   161  153  161 1   
   162  153  162 1   
   163  154  155 1   
   164  154  156 1   
   165  163  164 1   
   166  163  168 1   
   167  164  165 1   
   168  164  166 1   
   169  164  167 1   
   170  170  171 1   
   171  170  172 1   
   172  173  174 1   
   173  173  175 1   
   174  176  177 1   
   175  176  178 1   
   176  179  180 1   
   177  179  181 1   
@<TRIPOS>SUBSTRUCTURE
     1 MOL         1 TEMP              0 ****  ****    0 ROOT
