@<TRIPOS>MOLECULE
MOL
  178   175     1     0     0
SMALL
resp


@<TRIPOS>ATOM
      1 C1         -2.0110   -5.2080   -3.7690 c3        1 MOL     -0.408616
      2 C2         -3.3700   -5.1550   -3.0780 c         1 MOL      0.734326
      3 O1         -3.5290   -5.8090   -2.0490 o         1 MOL     -0.637100
      4 H1         -1.7300   -4.2060   -4.0940 hc        1 MOL      0.101123
      5 H2         -1.2630   -5.5860   -3.0720 hc        1 MOL      0.101123
      6 H3         -2.0680   -5.8670   -4.6360 hc        1 MOL      0.101123
      7 N1         -4.3240   -4.3700   -3.4730 n         1 MOL     -0.580201
      8 C3         -5.5790   -4.1020   -2.7040 c3        1 MOL      0.179784
      9 C4         -5.4620   -3.1480   -1.4680 c         1 MOL      0.444781
     10 O2         -4.8420   -2.1060   -1.6610 o         1 MOL     -0.520784
     11 C5         -6.7450   -3.6570   -3.6550 c3        1 MOL     -0.059578
     12 C6         -8.2120   -3.6430   -3.2010 c         1 MOL      0.701084
     13 O3         -9.0170   -4.3110   -3.8300 o         1 MOL     -0.726263
     14 O4         -8.5150   -2.9450   -2.2270 o         1 MOL     -0.726263
     15 H4         -4.1160   -3.8440   -4.3060 hn        1 MOL      0.293821
     16 H5         -6.0000   -5.0320   -2.3270 h1        1 MOL      0.056076
     17 H6         -6.7050   -4.3850   -4.4660 hc        1 MOL     -0.029216
     18 H7         -6.5240   -2.6700   -4.0640 hc        1 MOL     -0.029216
     19 N2         -5.9040   -3.5530   -0.2960 n         1 MOL     -0.518232
     20 C7         -5.6440   -2.9570    1.0300 c3        1 MOL      0.472990
     21 C8         -4.6320   -3.8510    1.8110 c         1 MOL      0.491439
     22 O5         -4.5860   -5.0310    1.5340 o         1 MOL     -0.554153
     23 C9         -6.9750   -2.9200    1.7890 c3        1 MOL     -0.429231
     24 H8         -6.2750   -4.4770   -0.2040 hn        1 MOL      0.276455
     25 H9         -5.2110   -1.9650    0.8870 h1        1 MOL      0.098076
     26 H10        -7.4170   -3.9000    1.6490 hc        1 MOL      0.100525
     27 H11        -6.8990   -2.5970    2.8260 hc        1 MOL      0.100525
     28 H12        -7.6690   -2.2570    1.2740 hc        1 MOL      0.100525
     29 N3         -3.9440   -3.3370    2.8180 n         1 MOL     -0.586293
     30 C10        -4.1860   -2.0970    3.6090 c3        1 MOL      0.282979
     31 C11        -4.0380   -0.8120    2.7840 c         1 MOL      0.045759
     32 O6         -3.4700   -0.7960    1.7260 o         1 MOL     -0.438677
     33 C12        -3.3000   -2.0950    4.7910 c3        1 MOL     -0.088542
     34 C13        -1.7980   -2.4320    4.5220 c         1 MOL      0.693615
     35 O7         -1.3030   -2.0160    3.4700 o         1 MOL     -0.686728
     36 O8         -1.1230   -2.9730    5.4440 o         1 MOL     -0.686728
     37 H13        -3.3600   -4.0500    3.2310 hn        1 MOL      0.305867
     38 H14        -5.2040   -2.0480    4.0210 h1        1 MOL      0.014024
     39 H15        -3.6580   -2.8670    5.4760 hc        1 MOL     -0.009943
     40 H16        -3.3740   -1.1190    5.2700 hc        1 MOL     -0.009943
     41 N4         -4.5160    0.3300    3.3430 n         1 MOL     -0.111803
     42 C14        -4.6480    1.5750    2.7150 c3        1 MOL     -0.305079
     43 C15        -5.7290    1.6050    1.6180 c         1 MOL      0.795948
     44 O9         -6.2840    0.6210    1.1750 o         1 MOL     -0.573906
     45 H17        -5.0000    0.2160    4.2160 hn        1 MOL      0.226933
     46 H18        -3.6480    1.7090    2.3090 h1        1 MOL      0.139279
     47 H19        -4.9180    2.3180    3.4600 h1        1 MOL      0.139279
     48 N5         -6.0060    2.7510    0.9990 n         1 MOL     -0.668174
     49 C16        -5.2220    3.9840    1.0700 c3        1 MOL      0.220399
     50 C17        -4.7290    4.4210   -0.3390 c         1 MOL      0.574243
     51 O10        -4.3210    5.5160   -0.4630 o         1 MOL     -0.527497
     52 C18        -5.9270    5.1210    1.9200 c3        1 MOL     -0.438963
     53 C19        -6.3690    4.6730    3.3050 c         1 MOL      0.754348
     54 N6         -5.6070    4.8830    4.3410 n         1 MOL     -0.845259
     55 O11        -7.3440    4.0070    3.4410 o         1 MOL     -0.565644
     56 H20        -6.9120    2.6300    0.5630 hn        1 MOL      0.328947
     57 H21        -4.2880    3.7390    1.5880 h1        1 MOL      0.017545
     58 H22        -6.8090    5.3800    1.3510 hc        1 MOL      0.116456
     59 H23        -5.3910    6.0470    2.0830 hc        1 MOL      0.116456
     60 H24        -4.7710    5.4280    4.1610 hn        1 MOL      0.378127
     61 H25        -5.7940    4.5340    5.2770 hn        1 MOL      0.378127
     62 N7         -4.7490    3.5980   -1.3440 n         1 MOL     -0.376948
     63 C20        -4.4850    3.9950   -2.7440 c3        1 MOL     -0.068215
     64 C21        -3.1050    4.5520   -3.0360 c         1 MOL      0.521041
     65 O12        -2.8980    5.4450   -3.8860 o         1 MOL     -0.564317
     66 H26        -4.9670    2.6450   -1.0960 hn        1 MOL      0.307519
     67 H27        -5.2050    4.7450   -3.0520 h1        1 MOL      0.094105
     68 H28        -4.6770    3.1250   -3.3720 h1        1 MOL      0.094105
     69 N8         -2.0550    4.2550   -2.2630 n         1 MOL     -0.347940
     70 C22        -0.7190    4.8280   -2.4660 c3        1 MOL      0.046380
     71 C23         0.2930    3.7760   -2.3980 c         1 MOL      0.567364
     72 O13        -0.0150    2.6330   -2.0010 o         1 MOL     -0.607929
     73 C24        -0.2920    5.8870   -1.4610 c3        1 MOL      0.251415
     74 C25        -1.1730    7.1460   -1.6200 c3        1 MOL     -0.530767
     75 O14        -0.4160    5.3740   -0.1870 oh        1 MOL     -0.591514
     76 H29        -2.1220    3.5240   -1.5830 hn        1 MOL      0.303379
     77 H30        -0.5870    5.2020   -3.4850 h1        1 MOL      0.072517
     78 H31         0.7700    6.0920   -1.6170 h1        1 MOL      0.029546
     79 H32         0.0420    5.9180    0.4500 ho        1 MOL      0.431234
     80 H33        -0.6480    7.9710   -1.1470 hc        1 MOL      0.138324
     81 H34        -1.3550    7.3460   -2.6820 hc        1 MOL      0.138324
     82 H35        -2.1170    7.0130   -1.0850 hc        1 MOL      0.138324
     83 N9          1.5450    4.0660   -2.7640 n         1 MOL     -0.557603
     84 C26         2.6840    3.1730   -2.3530 c3        1 MOL     -0.019802
     85 C27         2.7490    3.4730   -0.8150 c         1 MOL      0.292634
     86 O15         3.0590    4.5500   -0.5000 o         1 MOL     -0.531311
     87 C28         4.0110    3.4500   -3.0390 c3        1 MOL      0.188717
     88 C29         5.1070    2.4590   -2.5830 c3        1 MOL      0.165266
     89 C30         3.7210    3.3220   -4.4960 c3        1 MOL     -0.306148
     90 C31         6.4840    3.0910   -2.7580 c3        1 MOL     -0.101514
     91 H36         1.7650    4.9320   -3.2240 hn        1 MOL      0.308425
     92 H37         2.3650    2.1350   -2.4930 h1        1 MOL      0.192244
     93 H38         4.2960    4.4870   -2.8400 hc        1 MOL      0.016881
     94 H39         4.9640    1.5980   -3.2250 hc        1 MOL     -0.075472
     95 H40         5.0390    2.0680   -1.5680 hc        1 MOL     -0.075472
     96 H41         3.2260    2.3750   -4.7130 hc        1 MOL      0.064925
     97 H42         3.0960    4.1230   -4.9120 hc        1 MOL      0.064925
     98 H43         4.6850    3.3740   -4.9970 hc        1 MOL      0.064925
     99 H44         6.5210    4.1590   -2.5740 hc        1 MOL      0.008912
    100 H45         7.2280    2.6300   -2.1000 hc        1 MOL      0.008912
    101 H46         6.8820    2.8830   -3.7510 hc        1 MOL      0.008912
    102 N10         2.5150    2.4870    0.0390 n         1 MOL      0.040351
    103 C32         2.7820    2.5960    1.4950 c3        1 MOL     -0.148041
    104 C33         3.8740    1.8020    2.0900 c         1 MOL      0.520748
    105 O16         4.2240    1.9900    3.3060 o         1 MOL     -0.552769
    106 C34         1.4330    2.3320    2.3430 c3        1 MOL      0.032402
    107 C35         0.6450    1.0610    2.1020 c         1 MOL      0.772556
    108 O17         1.1940   -0.0560    2.0820 o         1 MOL     -0.803170
    109 O18        -0.6050    1.1800    1.8260 o         1 MOL     -0.803170
    110 H47         2.2270    1.6060   -0.3580 hn        1 MOL      0.150895
    111 H48         3.0130    3.6360    1.7110 h1        1 MOL      0.107665
    112 H49         0.8120    3.1680    2.0240 hc        1 MOL     -0.007284
    113 H50         1.4620    2.4760    3.4250 hc        1 MOL     -0.007284
    114 N11         4.5350    0.9100    1.2960 n         1 MOL     -0.547748
    115 C36         5.6850    0.1080    1.8170 c3        1 MOL      0.320892
    116 C37         5.7920   -1.2470    0.9750 c         1 MOL      0.203098
    117 O19         6.5200   -1.2670    0.0030 o         1 MOL     -0.408611
    118 C38         6.9700    0.9530    1.7810 c3        1 MOL     -0.345829
    119 C39         8.1410    0.3530    2.5630 ca        1 MOL      0.054915
    120 C40         8.9610   -0.5820    1.8770 ca        1 MOL     -0.085913
    121 C41         8.5980    0.7950    3.8130 ca        1 MOL     -0.085913
    122 C42        10.1260   -1.0940    2.4420 ca        1 MOL     -0.170710
    123 C43         9.8910    0.4340    4.3340 ca        1 MOL     -0.170710
    124 C44        10.6290   -0.6060    3.6870 ca        1 MOL     -0.108790
    125 H51         4.1190    0.6610    0.4150 hn        1 MOL      0.340945
    126 H52         5.5340   -0.1910    2.8550 h1        1 MOL      0.026079
    127 H53         6.6220    1.8990    2.1990 hc        1 MOL      0.135419
    128 H54         7.2850    1.1680    0.7570 hc        1 MOL      0.135419
    129 H55         8.6510   -0.8320    0.8640 ha        1 MOL      0.098417
    130 H56         8.0780    1.6120    4.2990 ha        1 MOL      0.098417
    131 H57        10.7750   -1.7210    1.8380 ha        1 MOL      0.111817
    132 H58        10.2300    0.9750    5.2030 ha        1 MOL      0.111817
    133 H59        11.5570   -0.9720    4.0940 ha        1 MOL      0.101902
    134 N12         5.0210   -2.3530    1.2660 n         1 MOL     -0.080463
    135 C45         5.0380   -3.6020    0.4950 c3        1 MOL     -0.040260
    136 C46         4.8570   -3.6170   -0.9900 c         1 MOL      0.169914
    137 O20         5.3600   -4.5390   -1.5990 o         1 MOL     -0.427524
    138 C47         3.8260   -4.3220    1.0380 c3        1 MOL     -0.061807
    139 C48         3.7340   -3.8670    2.4990 c3        1 MOL     -0.266754
    140 C49         4.0220   -2.3760    2.3270 c3        1 MOL      0.084792
    141 H60         5.9280   -4.1140    0.8770 h1        1 MOL      0.098693
    142 H61         2.9360   -3.9700    0.5240 hc        1 MOL      0.083812
    143 H62         3.8630   -5.3970    0.8790 hc        1 MOL      0.083812
    144 H63         2.7390   -4.0040    2.9210 hc        1 MOL      0.085248
    145 H64         4.4530   -4.3360    3.1750 hc        1 MOL      0.085248
    146 H65         3.1890   -1.7560    1.9890 h1        1 MOL      0.074442
    147 H66         4.3940   -1.9330    3.2430 h1        1 MOL      0.074442
    148 N13         4.2040   -2.5920   -1.6220 n         1 MOL     -0.053100
    149 C50         4.2030   -2.4040   -3.0910 c3        1 MOL     -0.159248
    150 C51         5.6700   -2.4140   -3.6850 c         1 MOL      0.314664
    151 O21         5.9960   -3.1020   -4.6340 o         1 MOL     -0.538107
    152 C52         3.4840   -1.1120   -3.5150 c3        1 MOL      0.202244
    153 C53         2.0100   -0.9790   -2.9890 c3        1 MOL     -0.429363
    154 C54         1.8750   -0.6380   -1.4790 c         1 MOL      0.630788
    155 O22         0.7600   -0.8410   -0.9080 o         1 MOL     -0.649331
    156 O23         2.8470   -0.2520   -0.7910 o         1 MOL     -0.649331
    157 H67         3.6780   -1.8820   -1.1390 hn        1 MOL      0.263234
    158 H68         3.6130   -3.1690   -3.5890 h1        1 MOL      0.096718
    159 H69         3.5030   -0.9380   -4.5940 hc        1 MOL     -0.009771
    160 H70         4.0540   -0.2690   -3.1380 hc        1 MOL     -0.009771
    161 H71         1.4680   -1.8790   -3.2680 hc        1 MOL      0.109596
    162 H72         1.6230   -0.1600   -3.5920 hc        1 MOL      0.109596
    163 N14         6.6010   -1.8290   -2.9990 n         1 MOL      0.039089
    164 C55         8.0500   -1.7700   -3.2210 c3        1 MOL     -0.235570
    165 H73         8.3080   -0.8150   -3.6780 h1        1 MOL      0.090519
    166 H74         8.5690   -1.8690   -2.2680 h1        1 MOL      0.090519
    167 H75         8.3500   -2.5820   -3.8840 h1        1 MOL      0.090519
    168 H76         6.2310   -1.1990   -2.2920 hn        1 MOL      0.117021
    169 Ca1        -0.8800   -1.2240    1.1240 Ca        1 MOL      1.784580
    170 O24         0.3970   -3.4750    1.3690 oh        1 MOL     -0.903097
    171 H77         0.4740   -3.8500    2.2490 ho        1 MOL      0.423002
    172 H78         0.2310   -4.2230    0.7960 ho        1 MOL      0.423002
    173 O25        -1.5260    0.4880   -1.2010 oh        1 MOL     -0.903097
    174 H79        -0.7090   -0.0250   -1.2310 ho        1 MOL      0.423002
    175 H80        -1.3080    1.2960   -1.6570 ho        1 MOL      0.423002
    176 O26        -2.3610   -2.8990   -0.2270 oh        1 MOL     -0.903097
    177 H81        -3.1310   -2.9370   -0.7890 ho        1 MOL      0.423002
    178 H82        -2.2080   -3.8130    0.0350 ho        1 MOL      0.423002
@<TRIPOS>BOND
     1    1    2 1   
     2    1    4 1   
     3    1    5 1   
     4    1    6 1   
     5    2    3 2   
     6    2    7 1   
     7    7    8 1   
     8    7   15 1   
     9    8    9 1   
    10    8   11 1   
    11    8   16 1   
    12    9   10 2   
    13    9   19 1   
    14   11   12 1   
    15   11   17 1   
    16   11   18 1   
    17   12   13 1   
    18   12   14 1   
    19   19   20 1   
    20   19   24 1   
    21   20   21 1   
    22   20   23 1   
    23   20   25 1   
    24   21   22 2   
    25   21   29 1   
    26   23   26 1   
    27   23   27 1   
    28   23   28 1   
    29   29   30 1   
    30   29   37 1   
    31   30   31 1   
    32   30   33 1   
    33   30   38 1   
    34   31   32 2   
    35   31   41 1   
    36   33   34 1   
    37   33   39 1   
    38   33   40 1   
    39   34   35 1   
    40   34   36 1   
    41   41   42 1   
    42   41   45 1   
    43   42   43 1   
    44   42   46 1   
    45   42   47 1   
    46   43   44 2   
    47   43   48 1   
    48   48   49 1   
    49   48   56 1   
    50   49   50 1   
    51   49   52 1   
    52   49   57 1   
    53   50   51 2   
    54   50   62 1   
    55   52   53 1   
    56   52   58 1   
    57   52   59 1   
    58   53   54 1   
    59   53   55 2   
    60   54   60 1   
    61   54   61 1   
    62   62   63 1   
    63   62   66 1   
    64   63   64 1   
    65   63   67 1   
    66   63   68 1   
    67   64   65 2   
    68   64   69 1   
    69   69   70 1   
    70   69   76 1   
    71   70   71 1   
    72   70   73 1   
    73   70   77 1   
    74   71   72 2   
    75   71   83 1   
    76   73   74 1   
    77   73   75 1   
    78   73   78 1   
    79   74   80 1   
    80   74   81 1   
    81   74   82 1   
    82   75   79 1   
    83   83   84 1   
    84   83   91 1   
    85   84   85 1   
    86   84   87 1   
    87   84   92 1   
    88   85   86 2   
    89   85  102 1   
    90   87   88 1   
    91   87   89 1   
    92   87   93 1   
    93   88   90 1   
    94   88   94 1   
    95   88   95 1   
    96   89   96 1   
    97   89   97 1   
    98   89   98 1   
    99   90   99 1   
   100   90  100 1   
   101   90  101 1   
   102  102  103 1   
   103  102  110 1   
   104  103  104 1   
   105  103  106 1   
   106  103  111 1   
   107  104  105 2   
   108  104  114 1   
   109  106  107 1   
   110  106  112 1   
   111  106  113 1   
   112  107  108 1   
   113  107  109 1   
   114  114  115 1   
   115  114  125 1   
   116  115  116 1   
   117  115  118 1   
   118  115  126 1   
   119  116  117 2   
   120  116  134 1   
   121  118  119 1   
   122  118  127 1   
   123  118  128 1   
   124  119  120 ar  
   125  119  121 ar  
   126  120  122 ar  
   127  120  129 1   
   128  121  123 ar  
   129  121  130 1   
   130  122  124 ar  
   131  122  131 1   
   132  123  124 ar  
   133  123  132 1   
   134  124  133 1   
   135  134  135 1   
   136  134  140 1   
   137  135  136 1   
   138  135  138 1   
   139  135  141 1   
   140  136  137 2   
   141  136  148 1   
   142  138  139 1   
   143  138  142 1   
   144  138  143 1   
   145  139  140 1   
   146  139  144 1   
   147  139  145 1   
   148  140  146 1   
   149  140  147 1   
   150  148  149 1   
   151  148  157 1   
   152  149  150 1   
   153  149  152 1   
   154  149  158 1   
   155  150  151 2   
   156  150  163 1   
   157  152  153 1   
   158  152  159 1   
   159  152  160 1   
   160  153  154 1   
   161  153  161 1   
   162  153  162 1   
   163  154  155 1   
   164  154  156 1   
   165  163  164 1   
   166  163  168 1   
   167  164  165 1   
   168  164  166 1   
   169  164  167 1   
   170  170  171 1   
   171  170  172 1   
   172  173  174 1   
   173  173  175 1   
   174  176  177 1   
   175  176  178 1   
@<TRIPOS>SUBSTRUCTURE
     1 MOL         1 TEMP              0 ****  ****    0 ROOT
