@<TRIPOS>MOLECULE
MOL
  181   177     1     0     0
SMALL
resp


@<TRIPOS>ATOM
      1 C1          1.2730    7.2250   -1.4690 c3        1 MOL     -0.346749
      2 C2          2.6560    6.5520   -1.2700 c         1 MOL      0.714892
      3 O1          3.3530    6.9370   -0.3640 o         1 MOL     -0.596402
      4 H1          0.5360    6.7340   -0.8330 hc        1 MOL      0.087924
      5 H2          1.3390    8.2800   -1.2010 hc        1 MOL      0.087924
      6 H3          0.9700    7.1340   -2.5120 hc        1 MOL      0.087924
      7 N1          3.1030    5.5840   -2.0750 n         1 MOL     -0.633642
      8 C3          4.4010    4.9230   -1.8480 c3        1 MOL      0.261220
      9 C4          4.3620    4.0050   -0.5720 c         1 MOL      0.548785
     10 O2          4.0300    2.7730   -0.6760 o         1 MOL     -0.526561
     11 C5          4.8400    4.0470   -3.1150 c3        1 MOL     -0.424573
     12 C6          6.1900    3.3220   -2.9560 c         1 MOL      0.767797
     13 O3          6.2660    2.1690   -3.4240 o         1 MOL     -0.738272
     14 O4          7.1140    3.8490   -2.3080 o         1 MOL     -0.738272
     15 H4          2.4930    5.2960   -2.8210 hn        1 MOL      0.328327
     16 H5          5.1440    5.7070   -1.6780 h1        1 MOL      0.035885
     17 H6          4.8940    4.7970   -3.9170 hc        1 MOL      0.074736
     18 H7          4.0540    3.3450   -3.3970 hc        1 MOL      0.074736
     19 N2          4.6460    4.5780    0.6130 n         1 MOL     -0.844782
     20 C7          4.8390    3.7840    1.8320 c3        1 MOL      1.042096
     21 C8          3.5080    3.2730    2.4960 c         1 MOL      0.164298
     22 O5          2.4810    3.8960    2.2360 o         1 MOL     -0.490800
     23 C9          5.5160    4.6040    2.8800 c3        1 MOL     -0.288625
     24 H8          4.7510    5.5850    0.6070 hn        1 MOL      0.371948
     25 H9          5.5460    2.9700    1.7000 h1        1 MOL     -0.152682
     26 H10         5.7840    3.9460    3.7070 hc        1 MOL      0.031701
     27 H11         6.4520    4.9130    2.4120 hc        1 MOL      0.031701
     28 H12         4.8990    5.4720    3.1030 hc        1 MOL      0.031701
     29 N3          3.4730    2.2400    3.3250 n         1 MOL     -0.344971
     30 C10         4.4090    1.2480    3.6600 c3        1 MOL     -0.017271
     31 C11         4.6000    0.3870    2.3890 c         1 MOL      0.406974
     32 O6          3.7270    0.2120    1.5860 o         1 MOL     -0.439727
     33 C12         3.9490    0.2620    4.8200 c3        1 MOL     -0.174646
     34 C13         2.5600   -0.3880    4.5850 c         1 MOL      0.804506
     35 O7          1.7430    0.0900    3.8110 o         1 MOL     -0.716920
     36 O8          2.3460   -1.4420    5.1810 o         1 MOL     -0.716920
     37 H13         2.5040    2.0470    3.5600 hn        1 MOL      0.306510
     38 H14         5.3780    1.6490    3.9410 h1        1 MOL      0.048165
     39 H15         3.8700    0.7810    5.7790 hc        1 MOL      0.033671
     40 H16         4.7060   -0.5030    4.9880 hc        1 MOL      0.033671
     41 N4          5.8100   -0.2450    2.3430 n         1 MOL     -0.350890
     42 C14         6.2820   -1.3340    1.4520 c3        1 MOL     -0.108212
     43 C15         6.7600   -0.9060   -0.0380 c         1 MOL      0.505249
     44 O9          7.2130    0.1690   -0.2190 o         1 MOL     -0.425614
     45 H17         6.4260    0.0650    3.0900 hn        1 MOL      0.247792
     46 H18         5.3680   -1.9260    1.4750 h1        1 MOL      0.092957
     47 H19         6.9830   -2.0470    1.8780 h1        1 MOL      0.092957
     48 N5          6.7920   -1.8360   -1.0510 n         1 MOL     -0.467638
     49 C16         6.3400   -3.2730   -0.9330 c3        1 MOL      0.017274
     50 C17         5.2070   -3.5590   -2.0500 c         1 MOL      0.501619
     51 O10         4.9900   -4.7220   -2.3330 o         1 MOL     -0.493303
     52 C18         7.6040   -4.1910   -0.8330 c3        1 MOL     -0.102820
     53 C19         8.5150   -3.8310    0.3490 c         1 MOL      0.637993
     54 N6          9.4150   -2.8520    0.2180 n         1 MOL     -0.816376
     55 O11         8.4370   -4.3930    1.4180 o         1 MOL     -0.552278
     56 H20         7.0780   -1.5430   -1.9710 hn        1 MOL      0.293209
     57 H21         5.8030   -3.4230    0.0100 h1        1 MOL      0.088149
     58 H22         8.1910   -4.0610   -1.7440 hc        1 MOL      0.041742
     59 H23         7.3550   -5.2410   -0.6780 hc        1 MOL      0.041742
     60 H24         9.6330   -2.3680   -0.6370 hn        1 MOL      0.370992
     61 H25        10.0640   -2.7530    0.9980 hn        1 MOL      0.370992
     62 N7          4.5940   -2.5150   -2.6800 n         1 MOL     -0.368008
     63 C20         3.5420   -2.6150   -3.7790 c3        1 MOL     -0.092678
     64 C21         2.3800   -3.5520   -3.3530 c         1 MOL      0.504964
     65 O12         2.0380   -4.4430   -4.0940 o         1 MOL     -0.531931
     66 H26         4.9230   -1.5980   -2.4110 hn        1 MOL      0.290345
     67 H27         4.0820   -2.9380   -4.6730 h1        1 MOL      0.105475
     68 H28         3.2180   -1.6000   -3.9530 h1        1 MOL      0.105475
     69 N8          1.8120   -3.5210   -2.1440 n         1 MOL     -0.303788
     70 C22         0.8400   -4.4450   -1.6260 c3        1 MOL     -0.104709
     71 C23        -0.3020   -3.6280   -0.8920 c         1 MOL      0.272140
     72 O13         0.0170   -2.6740   -0.1630 o         1 MOL     -0.383435
     73 C24         1.3870   -5.4530   -0.5270 c3        1 MOL      0.357537
     74 C25         2.1580   -6.6060   -1.0910 c3        1 MOL     -0.642276
     75 O14         2.3680   -4.8280    0.3610 oh        1 MOL     -0.610005
     76 H29         2.0170   -2.7200   -1.5650 hn        1 MOL      0.250249
     77 H30         0.4360   -5.0140   -2.4630 h1        1 MOL      0.147043
     78 H31         0.5460   -5.9210   -0.0240 h1        1 MOL      0.031950
     79 H32         2.2420   -5.2600    1.2070 ho        1 MOL      0.404163
     80 H33         1.4820   -7.0940   -1.7960 hc        1 MOL      0.176978
     81 H34         2.9910   -6.2960   -1.7220 hc        1 MOL      0.176978
     82 H35         2.5790   -7.1620   -0.2530 hc        1 MOL      0.176978
     83 N9         -1.5890   -3.8780   -1.3910 n         1 MOL     -0.179594
     84 C26        -2.7780   -3.0030   -1.2500 c3        1 MOL     -0.333126
     85 C27        -3.4030   -3.3180    0.0350 c         1 MOL      0.575446
     86 O15        -3.7090   -4.4920    0.3800 o         1 MOL     -0.613076
     87 C28        -3.6270   -3.2140   -2.5120 c3        1 MOL      0.020366
     88 C29        -4.9770   -2.3380   -2.5140 c3        1 MOL      0.243122
     89 C30        -2.8070   -2.8090   -3.7650 c3        1 MOL     -0.291696
     90 C31        -5.8120   -2.5080   -3.8070 c3        1 MOL     -0.196462
     91 H36        -1.6950   -4.7180   -1.9380 hn        1 MOL      0.228298
     92 H37        -2.4550   -1.9550   -1.2230 h1        1 MOL      0.281253
     93 H38        -3.9220   -4.2610   -2.5490 hc        1 MOL      0.051607
     94 H39        -4.7950   -1.2660   -2.5100 hc        1 MOL     -0.043566
     95 H40        -5.6170   -2.5700   -1.6610 hc        1 MOL     -0.043566
     96 H41        -1.9670   -3.4330   -4.0680 hc        1 MOL      0.077385
     97 H42        -3.4440   -2.6980   -4.6390 hc        1 MOL      0.077385
     98 H43        -2.4770   -1.7690   -3.7370 hc        1 MOL      0.077385
     99 H44        -5.6570   -1.8120   -4.6370 hc        1 MOL      0.029874
    100 H45        -5.6210   -3.5350   -4.1250 hc        1 MOL      0.029874
    101 H46        -6.8580   -2.4750   -3.4970 hc        1 MOL      0.029874
    102 N10        -3.5110   -2.2880    0.7840 n         1 MOL     -0.090620
    103 C32        -4.2560   -2.2800    2.0810 c3        1 MOL     -0.067996
    104 C33        -5.3230   -1.1620    2.2100 c         1 MOL      0.473647
    105 O16        -6.0790   -1.0620    3.1550 o         1 MOL     -0.491047
    106 C34        -3.2190   -2.1790    3.2290 c3        1 MOL     -0.115862
    107 C35        -2.0540   -1.1620    2.9420 c         1 MOL      0.956990
    108 O17        -0.9110   -1.5230    2.7300 o         1 MOL     -0.770292
    109 O18        -2.3060    0.0470    3.2250 o         1 MOL     -0.770292
    110 H47        -2.9930   -1.4680    0.5290 hn        1 MOL     -0.086019
    111 H48        -4.8470   -3.1960    2.2060 h1        1 MOL      0.139761
    112 H49        -2.7110   -3.1360    3.3360 hc        1 MOL      0.006909
    113 H50        -3.7370   -1.9050    4.1440 hc        1 MOL      0.006909
    114 N11        -5.5620   -0.3380    1.1200 n         1 MOL     -0.252578
    115 C36        -6.6770    0.6190    0.9920 c3        1 MOL      0.376588
    116 C37        -6.2870    1.9900    0.4640 c         1 MOL      0.137390
    117 O19        -6.8160    2.4550   -0.5440 o         1 MOL     -0.470026
    118 C38        -7.8080   -0.0430    0.2220 c3        1 MOL     -0.228692
    119 C39        -8.3370   -1.2810    0.8250 ca        1 MOL      0.056252
    120 C40        -7.9170   -2.5270    0.2650 ca        1 MOL     -0.128683
    121 C41        -9.1290   -1.2980    1.9710 ca        1 MOL     -0.128683
    122 C42        -8.2920   -3.7050    0.8900 ca        1 MOL     -0.150014
    123 C43        -9.5660   -2.5130    2.5850 ca        1 MOL     -0.150014
    124 C44        -9.1190   -3.7300    2.0450 ca        1 MOL     -0.112557
    125 H51        -4.9310   -0.3600    0.3320 hn        1 MOL      0.061026
    126 H52        -7.0950    0.7830    1.9820 h1        1 MOL      0.010896
    127 H53        -7.3820   -0.2570   -0.7560 hc        1 MOL      0.076734
    128 H54        -8.6300    0.5910   -0.0950 hc        1 MOL      0.076734
    129 H55        -7.3390   -2.6380   -0.6320 ha        1 MOL      0.103958
    130 H56        -9.3980   -0.3480    2.4090 ha        1 MOL      0.103958
    131 H57        -7.8120   -4.6070    0.5350 ha        1 MOL      0.116175
    132 H58       -10.1360   -2.4520    3.5030 ha        1 MOL      0.116175
    133 H59        -9.3630   -4.6310    2.5770 ha        1 MOL      0.101606
    134 N12        -5.3030    2.6530    1.1610 n         1 MOL      0.016647
    135 C45        -4.8160    3.9860    0.7560 c3        1 MOL      0.053550
    136 C46        -4.5150    4.1550   -0.7820 c         1 MOL      0.183700
    137 O20        -4.6950    5.1720   -1.4640 o         1 MOL     -0.477135
    138 C47        -3.5550    4.2050    1.5560 c3        1 MOL     -0.101702
    139 C48        -3.9330    3.5840    2.8410 c3        1 MOL      0.026929
    140 C49        -4.6230    2.2520    2.3620 c3        1 MOL     -0.417843
    141 H60        -5.5650    4.7320    1.0080 h1        1 MOL      0.052987
    142 H61        -2.6870    3.6790    1.1620 hc        1 MOL      0.062441
    143 H62        -3.4270    5.2600    1.7990 hc        1 MOL      0.062441
    144 H63        -3.0800    3.4880    3.5190 hc        1 MOL      0.039144
    145 H64        -4.5800    4.3290    3.2950 hc        1 MOL      0.039144
    146 H65        -3.8190    1.5510    2.1590 h1        1 MOL      0.165964
    147 H66        -5.3200    1.8260    3.0860 h1        1 MOL      0.165964
    148 N13        -4.0340    3.0020   -1.3420 n         1 MOL      0.048195
    149 C50        -3.6300    2.8790   -2.7430 c3        1 MOL     -0.385217
    150 C51        -4.8460    2.9910   -3.6880 c         1 MOL      0.623553
    151 O21        -4.7170    3.7250   -4.6690 o         1 MOL     -0.561814
    152 C52        -2.8680    1.5400   -2.9840 c3        1 MOL     -0.027193
    153 C53        -1.6490    1.3290   -2.0770 c3        1 MOL      0.044685
    154 C54        -1.9600    0.8240   -0.6930 c         1 MOL      0.276110
    155 O22        -0.9280    0.5970   -0.0200 o         1 MOL     -0.496621
    156 O23        -3.1230    0.5940   -0.2710 o         1 MOL     -0.496621
    157 H67        -3.9770    2.1870   -0.7560 hn        1 MOL      0.332943
    158 H68        -2.9000    3.6470   -3.0030 h1        1 MOL      0.152662
    159 H69        -2.4310    1.5100   -3.9760 hc        1 MOL      0.016047
    160 H70        -3.5810    0.7280   -2.8430 hc        1 MOL      0.016047
    161 H71        -1.0130    2.2010   -1.9210 hc        1 MOL      0.005084
    162 H72        -1.0850    0.5260   -2.5520 hc        1 MOL      0.005084
    163 N14        -5.9230    2.1950   -3.3940 n         1 MOL     -0.261277
    164 C55        -7.2150    2.2960   -4.0700 c3        1 MOL     -0.248597
    165 H73        -7.9720    1.7740   -3.4850 h1        1 MOL      0.098374
    166 H74        -7.4920    3.3450   -4.1700 h1        1 MOL      0.098374
    167 H75        -7.1440    1.8420   -5.0590 h1        1 MOL      0.098374
    168 H76        -5.8580    1.6890   -2.5230 hn        1 MOL      0.242644
    169 Ca1         0.9630   -0.3260    1.3730 Ca        1 MOL      1.679860
    170 O24        -0.7130    1.8730    2.5220 oh        1 MOL     -0.889000
    171 H77        -1.2720    1.2180    2.9440 ho        1 MOL      0.419963
    172 H78        -0.8990    1.7740    1.5900 ho        1 MOL      0.419963
    173 O25         1.6800    2.2260    0.4400 oh        1 MOL     -0.889000
    174 H79         1.8580    2.9690    1.0200 ho        1 MOL      0.419963
    175 H80         2.4700    2.1480   -0.0940 ho        1 MOL      0.419963
    176 O26         2.2760   -0.2680   -1.2440 oh        1 MOL     -0.889000
    177 H81         1.7330    0.3620   -1.7160 ho        1 MOL      0.419963
    178 H82         3.1310   -0.2010   -1.6690 ho        1 MOL      0.419963
    179 O27         2.3560   -2.5740    1.7600 oh        1 MOL     -0.889000
    180 H83         3.0300   -2.8440    2.3880 ho        1 MOL      0.419963
    181 H84         2.3130   -3.2940    1.1320 ho        1 MOL      0.419963
@<TRIPOS>BOND
     1    1    2 1   
     2    1    4 1   
     3    1    5 1   
     4    1    6 1   
     5    2    3 2   
     6    2    7 1   
     7    7    8 1   
     8    7   15 1   
     9    8    9 1   
    10    8   11 1   
    11    8   16 1   
    12    9   10 2   
    13    9   19 1   
    14   11   12 1   
    15   11   17 1   
    16   11   18 1   
    17   12   13 1   
    18   12   14 1   
    19   19   20 1   
    20   19   24 1   
    21   20   21 1   
    22   20   23 1   
    23   20   25 1   
    24   21   22 2   
    25   21   29 1   
    26   23   26 1   
    27   23   27 1   
    28   23   28 1   
    29   29   30 1   
    30   29   37 1   
    31   30   31 1   
    32   30   33 1   
    33   30   38 1   
    34   31   32 2   
    35   31   41 1   
    36   33   34 1   
    37   33   39 1   
    38   33   40 1   
    39   34   35 1   
    40   34   36 1   
    41   41   42 1   
    42   41   45 1   
    43   42   43 1   
    44   42   46 1   
    45   42   47 1   
    46   43   44 2   
    47   43   48 1   
    48   48   49 1   
    49   48   56 1   
    50   49   50 1   
    51   49   52 1   
    52   49   57 1   
    53   50   51 2   
    54   50   62 1   
    55   52   53 1   
    56   52   58 1   
    57   52   59 1   
    58   53   54 1   
    59   53   55 2   
    60   54   60 1   
    61   54   61 1   
    62   62   63 1   
    63   62   66 1   
    64   63   64 1   
    65   63   67 1   
    66   63   68 1   
    67   64   65 2   
    68   64   69 1   
    69   69   70 1   
    70   69   76 1   
    71   70   71 1   
    72   70   73 1   
    73   70   77 1   
    74   71   72 2   
    75   71   83 1   
    76   73   74 1   
    77   73   75 1   
    78   73   78 1   
    79   74   80 1   
    80   74   81 1   
    81   74   82 1   
    82   75   79 1   
    83   83   84 1   
    84   83   91 1   
    85   84   85 1   
    86   84   87 1   
    87   84   92 1   
    88   85   86 2   
    89   85  102 1   
    90   87   88 1   
    91   87   89 1   
    92   87   93 1   
    93   88   90 1   
    94   88   94 1   
    95   88   95 1   
    96   89   96 1   
    97   89   97 1   
    98   89   98 1   
    99   90   99 1   
   100   90  100 1   
   101   90  101 1   
   102  102  103 1   
   103  102  110 1   
   104  103  104 1   
   105  103  106 1   
   106  103  111 1   
   107  104  105 2   
   108  104  114 1   
   109  106  107 1   
   110  106  112 1   
   111  106  113 1   
   112  107  108 1   
   113  107  109 1   
   114  114  115 1   
   115  114  125 1   
   116  115  116 1   
   117  115  118 1   
   118  115  126 1   
   119  116  117 2   
   120  116  134 1   
   121  118  119 1   
   122  118  127 1   
   123  118  128 1   
   124  119  120 ar  
   125  119  121 ar  
   126  120  122 ar  
   127  120  129 1   
   128  121  123 ar  
   129  121  130 1   
   130  122  124 ar  
   131  122  131 1   
   132  123  124 ar  
   133  123  132 1   
   134  124  133 1   
   135  134  135 1   
   136  134  140 1   
   137  135  136 1   
   138  135  138 1   
   139  135  141 1   
   140  136  137 2   
   141  136  148 1   
   142  138  139 1   
   143  138  142 1   
   144  138  143 1   
   145  139  140 1   
   146  139  144 1   
   147  139  145 1   
   148  140  146 1   
   149  140  147 1   
   150  148  149 1   
   151  148  157 1   
   152  149  150 1   
   153  149  152 1   
   154  149  158 1   
   155  150  151 2   
   156  150  163 1   
   157  152  153 1   
   158  152  159 1   
   159  152  160 1   
   160  153  154 1   
   161  153  161 1   
   162  153  162 1   
   163  154  155 1   
   164  154  156 1   
   165  163  164 1   
   166  163  168 1   
   167  164  165 1   
   168  164  166 1   
   169  164  167 1   
   170  170  171 1   
   171  170  172 1   
   172  173  174 1   
   173  173  175 1   
   174  176  177 1   
   175  176  178 1   
   176  179  180 1   
   177  179  181 1   
@<TRIPOS>SUBSTRUCTURE
     1 MOL         1 TEMP              0 ****  ****    0 ROOT
