@<TRIPOS>MOLECULE
MOL
  182   178     1     0     0
SMALL
resp


@<TRIPOS>ATOM
      1 C1          0.3260   -4.4160    5.9780 c3        1 MOL     -0.431333
      2 C2          0.5050   -4.1660    4.4460 c         1 MOL      0.753777
      3 O1         -0.5370   -4.1060    3.7620 o         1 MOL     -0.603017
      4 H1          0.2250   -3.4600    6.4930 hc        1 MOL      0.126377
      5 H2         -0.5690   -5.0150    6.1480 hc        1 MOL      0.126377
      6 H3          1.1970   -4.9450    6.3650 hc        1 MOL      0.126377
      7 N1          1.6760   -4.0590    3.8870 n         1 MOL     -0.584269
      8 C3          1.9160   -3.6010    2.5370 c3        1 MOL      0.107642
      9 C4          1.9620   -4.6980    1.4600 c         1 MOL      0.437992
     10 O2          2.1460   -5.8870    1.7770 o         1 MOL     -0.539553
     11 C5          3.1980   -2.7480    2.5380 c3        1 MOL     -0.350637
     12 C6          3.2700   -1.6810    1.4780 c         1 MOL      0.507100
     13 O3          3.5440   -0.5060    1.8390 o         1 MOL     -0.689205
     14 O4          2.9950   -1.9460    0.2930 o         1 MOL     -0.689205
     15 H4          2.4720   -3.9510    4.4920 hn        1 MOL      0.309675
     16 H5          1.0860   -2.9390    2.3000 h1        1 MOL      0.149750
     17 H6          4.0750   -3.3950    2.4640 hc        1 MOL      0.164126
     18 H7          3.2400   -2.2910    3.5240 hc        1 MOL      0.164126
     19 N2          2.0000   -4.3250    0.1770 n         1 MOL     -0.273595
     20 C7          2.2370   -5.1790   -1.0310 c3        1 MOL     -0.008327
     21 C8          3.4510   -4.8770   -1.9170 c         1 MOL      0.435505
     22 O5          3.8320   -5.8000   -2.5990 o         1 MOL     -0.522313
     23 C9          0.9710   -5.1710   -1.9120 c3        1 MOL      0.176526
     24 C10        -0.3850   -5.6220   -1.3680 c3        1 MOL     -0.138802
     25 C11        -1.5670   -5.7630   -2.3240 c3        1 MOL     -0.018224
     26 C12        -1.2600   -6.7420   -3.4740 c3        1 MOL     -0.077940
     27 N3         -2.4100   -6.7370   -4.3360 n4        1 MOL     -0.225851
     28 H8          2.0910   -3.3290    0.0320 hn        1 MOL      0.321369
     29 H9          2.3590   -6.2000   -0.6620 h1        1 MOL      0.105633
     30 H10         1.2260   -5.8160   -2.7500 hc        1 MOL     -0.078076
     31 H11         0.8310   -4.1520   -2.2740 hc        1 MOL     -0.078076
     32 H12        -0.5600   -4.9600   -0.5150 hc        1 MOL      0.043989
     33 H13        -0.1530   -6.6060   -0.9560 hc        1 MOL      0.043989
     34 H14        -1.8620   -4.8030   -2.7360 hc        1 MOL      0.066835
     35 H15        -2.4090   -6.0320   -1.6890 hc        1 MOL      0.066835
     36 H16        -1.0970   -7.7710   -3.1390 hx        1 MOL      0.131052
     37 H17        -0.4170   -6.3460   -4.0430 hx        1 MOL      0.131052
     38 H18        -3.0520   -6.0280   -3.9840 hn        1 MOL      0.237249
     39 H19        -2.1910   -6.5870   -5.3100 hn        1 MOL      0.237249
     40 H20        -2.9940   -7.5380   -4.1500 hn        1 MOL      0.237249
     41 N4          4.0890   -3.6830   -1.8050 n         1 MOL     -0.198382
     42 C13         5.4220   -3.3290   -2.4350 c3        1 MOL      0.058709
     43 C14         6.4920   -3.0170   -1.3590 c         1 MOL      0.359487
     44 O6          7.6890   -3.0690   -1.6310 o         1 MOL     -0.471814
     45 C15         5.1200   -2.2430   -3.5290 c3        1 MOL     -0.344540
     46 C16         4.8560   -0.7960   -2.9770 c         1 MOL      0.951253
     47 O7          4.8420   -0.5830   -1.7400 o         1 MOL     -0.764408
     48 O8          4.7070    0.1120   -3.7940 o         1 MOL     -0.764408
     49 H21         3.6120   -2.9510   -1.2810 hn        1 MOL      0.110467
     50 H22         5.5880   -4.2820   -2.9310 h1        1 MOL      0.097771
     51 H23         4.2320   -2.4440   -4.1220 hc        1 MOL      0.085108
     52 H24         6.0180   -2.0680   -4.1290 hc        1 MOL      0.085108
     53 N5          5.9540   -2.7460   -0.1450 n         1 MOL     -0.097449
     54 C17         6.7160   -2.3880    1.0400 c3        1 MOL     -0.081634
     55 C18         7.1670   -0.9070    1.1690 c         1 MOL      0.569796
     56 O9          8.0070   -0.6590    2.0320 o         1 MOL     -0.571792
     57 H25         4.9540   -2.6700   -0.0760 hn        1 MOL     -0.039531
     58 H26         7.5970   -3.0330    1.0580 h1        1 MOL      0.079022
     59 H27         6.1210   -2.5980    1.9260 h1        1 MOL      0.079022
     60 N6          6.6940    0.0510    0.3690 n         1 MOL     -0.204211
     61 C19         7.2190    1.3470    0.1470 c3        1 MOL      0.062328
     62 C20         6.1170    2.3250    0.3720 c         1 MOL      0.494506
     63 O10         4.9220    2.0010    0.3020 o         1 MOL     -0.510369
     64 C21         7.7670    1.4110   -1.3280 c3        1 MOL     -0.168091
     65 C22         8.8920    0.5200   -1.6070 c         1 MOL      0.494374
     66 N7          8.8500   -0.1930   -2.7140 n         1 MOL     -0.567802
     67 O11         9.7960    0.3930   -0.7960 o         1 MOL     -0.495477
     68 H28         5.8700   -0.2500   -0.1450 hn        1 MOL      0.218040
     69 H29         8.0020    1.5440    0.8820 h1        1 MOL      0.059865
     70 H30         8.0660    2.4280   -1.5950 hc        1 MOL      0.031195
     71 H31         6.9090    1.0740   -1.9090 hc        1 MOL      0.031195
     72 H32         8.2150    0.1640   -3.4120 hn        1 MOL      0.307397
     73 H33         9.7200   -0.6170   -3.0140 hn        1 MOL      0.307397
     74 N8          6.4210    3.6060    0.6480 n         1 MOL     -0.459119
     75 C23         5.4270    4.7110    0.5040 c3        1 MOL      0.000277
     76 C24         4.1890    4.6980    1.3550 c         1 MOL      0.540022
     77 O12         4.1950    4.2990    2.5240 o         1 MOL     -0.478307
     78 H34         7.3900    3.8930    0.6310 hn        1 MOL      0.324629
     79 H35         5.1910    4.7460   -0.5570 h1        1 MOL      0.063563
     80 H36         5.9890    5.6390    0.6490 h1        1 MOL      0.063563
     81 N9          3.0470    5.0560    0.7440 n         1 MOL     -0.564622
     82 C25         1.6980    4.8510    1.3200 c3        1 MOL      0.095613
     83 C26         1.4630    3.3720    1.5400 c         1 MOL      0.745630
     84 O13         2.1920    2.5440    1.0480 o         1 MOL     -0.536937
     85 C27         0.5750    5.3770    0.4280 c3        1 MOL     -0.043790
     86 C28         0.8500    6.5970   -0.4610 ca        1 MOL      0.101543
     87 C29         1.0040    7.9040    0.1480 ca        1 MOL     -0.172939
     88 C30         0.8030    6.5000   -1.8450 ca        1 MOL     -0.172939
     89 C31         1.1010    9.0540   -0.6120 ca        1 MOL     -0.266549
     90 C32         0.8680    7.6310   -2.6340 ca        1 MOL     -0.266549
     91 C33         1.0750    8.9270   -1.9770 ca        1 MOL      0.362340
     92 O14         1.2290   10.0170   -2.7460 oh        1 MOL     -0.505016
     93 H37         3.1130    5.3600   -0.2190 hn        1 MOL      0.265484
     94 H38         1.5510    5.2750    2.3120 h1        1 MOL      0.058158
     95 H39        -0.3200    5.5530    1.0260 hc        1 MOL      0.007263
     96 H40         0.2450    4.5920   -0.2600 hc        1 MOL      0.007263
     97 H41         1.0870    8.0230    1.2200 ha        1 MOL      0.131627
     98 H42         0.6810    5.5330   -2.3080 ha        1 MOL      0.131627
     99 H43         1.2080   10.0120   -0.1370 ha        1 MOL      0.165125
    100 H44         0.7420    7.6090   -3.7070 ha        1 MOL      0.165125
    101 H45         1.4120   10.8200   -2.2570 ho        1 MOL      0.392004
    102 N10         0.3820    3.0180    2.3350 n         1 MOL     -0.759641
    103 C34        -0.0880    1.6940    2.7400 c3        1 MOL      0.223402
    104 C35        -0.3050    0.6380    1.6680 c         1 MOL      0.136572
    105 O15         0.6300    0.1830    1.0380 o         1 MOL     -0.246871
    106 C36         0.8100    1.1030    3.8100 c3        1 MOL      0.013408
    107 C37         0.4840   -0.3280    4.2200 c3        1 MOL     -0.291764
    108 C38         0.9640    2.0610    4.9970 c3        1 MOL     -0.248996
    109 C39        -0.8860   -0.3000    5.0230 c3        1 MOL     -0.312655
    110 H46        -0.1400    3.8230    2.6630 hn        1 MOL      0.347105
    111 H47        -1.0600    1.8930    3.1800 h1        1 MOL      0.065853
    112 H48         1.7410    1.0900    3.2380 hc        1 MOL      0.111594
    113 H49         1.2260   -0.6750    4.9440 hc        1 MOL      0.131004
    114 H50         0.4540   -1.0440    3.4080 hc        1 MOL      0.131004
    115 H51        -0.0160    2.4730    5.2340 hc        1 MOL      0.081747
    116 H52         1.2920    1.4850    5.8680 hc        1 MOL      0.081747
    117 H53         1.6300    2.9000    4.7820 hc        1 MOL      0.081747
    118 H54        -1.6260    0.1830    4.3970 hc        1 MOL      0.091227
    119 H55        -1.1750   -1.3440    5.1210 hc        1 MOL      0.091227
    120 H56        -0.7520    0.1330    6.0150 hc        1 MOL      0.091227
    121 N11        -1.5370    0.1790    1.4130 n         1 MOL     -0.178507
    122 C40        -1.8050   -0.8950    0.4530 c3        1 MOL     -0.325621
    123 C41        -3.2600   -0.7750   -0.0610 c         1 MOL      0.616322
    124 O16        -3.5660   -1.5000   -0.9680 o         1 MOL     -0.585395
    125 C42        -1.4960   -2.2850    1.0500 c3        1 MOL      0.417633
    126 O17        -2.1300   -2.5300    2.2870 oh        1 MOL     -0.607623
    127 H57        -2.2440    0.7260    1.8820 hn        1 MOL      0.259993
    128 H58        -1.1310   -0.7710   -0.3980 h1        1 MOL      0.148156
    129 H59        -0.4140   -2.4110    1.1180 h1        1 MOL     -0.078430
    130 H60        -1.8480   -3.0990    0.4070 h1        1 MOL     -0.078430
    131 H61        -1.5780   -3.2190    2.6590 ho        1 MOL      0.401684
    132 N12        -4.1730   -0.0640    0.5340 n         1 MOL     -0.386607
    133 C43        -5.4570    0.0840    0.0510 c3        1 MOL      0.156993
    134 C44        -5.5230    0.9910   -1.2070 c         1 MOL      0.596284
    135 O18        -4.5810    1.7540   -1.4300 o         1 MOL     -0.581144
    136 C45        -6.2190    0.5760    1.2830 c3        1 MOL     -0.341158
    137 H62        -3.8980    0.6670    1.1770 hn        1 MOL      0.215308
    138 H63        -5.8680   -0.8840   -0.2680 h1        1 MOL      0.108242
    139 H64        -6.3190   -0.2530    1.9880 hc        1 MOL      0.106368
    140 H65        -5.8660    1.5200    1.6940 hc        1 MOL      0.106368
    141 H66        -7.2220    0.8180    0.9570 hc        1 MOL      0.106368
    142 N13        -6.5520    0.7920   -2.0410 n         1 MOL     -0.637962
    143 C46        -7.7890   -0.0280   -1.8400 c3        1 MOL      0.437584
    144 C47        -8.9190    0.7100   -2.5600 c         1 MOL      0.338889
    145 O19        -8.7360    1.2000   -3.6910 o         1 MOL     -0.511977
    146 C48        -7.6210   -1.5220   -2.2960 c3        1 MOL     -0.336800
    147 H67        -6.4710    1.2990   -2.9110 hn        1 MOL      0.329376
    148 H68        -7.9860   -0.1590   -0.7800 h1        1 MOL     -0.076444
    149 H69        -7.5940   -1.3980   -3.3790 hc        1 MOL      0.094251
    150 H70        -6.6510   -1.9220   -1.9880 hc        1 MOL      0.094251
    151 H71        -8.4800   -2.0830   -1.9470 hc        1 MOL      0.094251
    152 N14       -10.1590    0.7490   -2.0490 n         1 MOL     -0.318452
    153 C49       -10.5180    0.1670   -0.7860 c3        1 MOL     -0.178520
    154 C50       -10.0420    1.0440    0.3430 c         1 MOL      0.347756
    155 O20        -9.5910    0.4880    1.3340 o         1 MOL     -0.493301
    156 C51       -12.0440   -0.0290   -0.7290 c3        1 MOL      0.018532
    157 C52       -12.5850   -0.4700    0.6330 c3        1 MOL     -0.148613
    158 C53       -13.9390   -1.1080    0.5400 c         1 MOL      0.656644
    159 O21       -14.1120   -2.2480    0.0100 o         1 MOL     -0.644992
    160 O22       -14.9190   -0.4200    0.9060 o         1 MOL     -0.644992
    161 H72       -10.9420    1.0650   -2.6130 hn        1 MOL      0.277511
    162 H73       -10.0960   -0.8230   -0.6310 h1        1 MOL      0.187674
    163 H74       -12.3530   -0.8200   -1.4180 hc        1 MOL      0.033869
    164 H75       -12.5230    0.9340   -0.9250 hc        1 MOL      0.033869
    165 H76       -12.7100    0.3930    1.2870 hc        1 MOL      0.042974
    166 H77       -11.9280   -1.2770    0.9640 hc        1 MOL      0.042974
    167 N15        -9.9910    2.3920    0.2770 n         1 MOL     -0.168714
    168 C54        -9.4080    3.3860    1.1670 c3        1 MOL     -0.164136
    169 H78        -9.5540    3.0770    2.2010 h1        1 MOL      0.085949
    170 H79        -8.3400    3.4760    0.9620 h1        1 MOL      0.085949
    171 H80        -9.8910    4.3500    1.0040 h1        1 MOL      0.085949
    172 H81       -10.3660    2.9040   -0.5120 hn        1 MOL      0.224223
    173 Ca1         2.8210    0.5840   -0.5970 Ca        1 MOL      1.787036
    174 O23         0.7110    1.9100   -1.7010 oh        1 MOL     -0.895553
    175 H82         0.8700    2.6540   -2.2850 ho        1 MOL      0.426777
    176 H83        -0.2140    1.6940   -1.8250 ho        1 MOL      0.426777
    177 O24         1.2620   -0.9080   -2.2440 oh        1 MOL     -0.895553
    178 H84         0.4980   -1.4660   -2.0890 ho        1 MOL      0.426777
    179 H85         1.1370   -0.5620   -3.1320 ho        1 MOL      0.426777
    180 O25         3.5840    2.1740   -2.4870 oh        1 MOL     -0.895553
    181 H86         4.0260    1.6270   -3.1300 ho        1 MOL      0.426777
    182 H87         3.5630    3.0410   -2.8910 ho        1 MOL      0.426777
@<TRIPOS>BOND
     1    1    2 1   
     2    1    4 1   
     3    1    5 1   
     4    1    6 1   
     5    2    3 2   
     6    2    7 1   
     7    7    8 1   
     8    7   15 1   
     9    8    9 1   
    10    8   11 1   
    11    8   16 1   
    12    9   10 2   
    13    9   19 1   
    14   11   12 1   
    15   11   17 1   
    16   11   18 1   
    17   12   13 1   
    18   12   14 1   
    19   19   20 1   
    20   19   28 1   
    21   20   21 1   
    22   20   23 1   
    23   20   29 1   
    24   21   22 2   
    25   21   41 1   
    26   23   24 1   
    27   23   30 1   
    28   23   31 1   
    29   24   25 1   
    30   24   32 1   
    31   24   33 1   
    32   25   26 1   
    33   25   34 1   
    34   25   35 1   
    35   26   27 1   
    36   26   36 1   
    37   26   37 1   
    38   27   38 1   
    39   27   39 1   
    40   27   40 1   
    41   41   42 1   
    42   41   49 1   
    43   42   43 1   
    44   42   45 1   
    45   42   50 1   
    46   43   44 2   
    47   43   53 1   
    48   45   46 1   
    49   45   51 1   
    50   45   52 1   
    51   46   47 1   
    52   46   48 1   
    53   53   54 1   
    54   53   57 1   
    55   54   55 1   
    56   54   58 1   
    57   54   59 1   
    58   55   56 2   
    59   55   60 1   
    60   60   61 1   
    61   60   68 1   
    62   61   62 1   
    63   61   64 1   
    64   61   69 1   
    65   62   63 2   
    66   62   74 1   
    67   64   65 1   
    68   64   70 1   
    69   64   71 1   
    70   65   66 1   
    71   65   67 2   
    72   66   72 1   
    73   66   73 1   
    74   74   75 1   
    75   74   78 1   
    76   75   76 1   
    77   75   79 1   
    78   75   80 1   
    79   76   77 2   
    80   76   81 1   
    81   81   82 1   
    82   81   93 1   
    83   82   83 1   
    84   82   85 1   
    85   82   94 1   
    86   83   84 2   
    87   83  102 1   
    88   85   86 1   
    89   85   95 1   
    90   85   96 1   
    91   86   87 ar  
    92   86   88 ar  
    93   87   89 ar  
    94   87   97 1   
    95   88   90 ar  
    96   88   98 1   
    97   89   91 ar  
    98   89   99 1   
    99   90   91 ar  
   100   90  100 1   
   101   91   92 1   
   102   92  101 1   
   103  102  103 1   
   104  102  110 1   
   105  103  104 1   
   106  103  106 1   
   107  103  111 1   
   108  104  105 2   
   109  104  121 1   
   110  106  107 1   
   111  106  108 1   
   112  106  112 1   
   113  107  109 1   
   114  107  113 1   
   115  107  114 1   
   116  108  115 1   
   117  108  116 1   
   118  108  117 1   
   119  109  118 1   
   120  109  119 1   
   121  109  120 1   
   122  121  122 1   
   123  121  127 1   
   124  122  123 1   
   125  122  125 1   
   126  122  128 1   
   127  123  124 2   
   128  123  132 1   
   129  125  126 1   
   130  125  129 1   
   131  125  130 1   
   132  126  131 1   
   133  132  133 1   
   134  132  137 1   
   135  133  134 1   
   136  133  136 1   
   137  133  138 1   
   138  134  135 2   
   139  134  142 1   
   140  136  139 1   
   141  136  140 1   
   142  136  141 1   
   143  142  143 1   
   144  142  147 1   
   145  143  144 1   
   146  143  146 1   
   147  143  148 1   
   148  144  145 2   
   149  144  152 1   
   150  146  149 1   
   151  146  150 1   
   152  146  151 1   
   153  152  153 1   
   154  152  161 1   
   155  153  154 1   
   156  153  156 1   
   157  153  162 1   
   158  154  155 2   
   159  154  167 1   
   160  156  157 1   
   161  156  163 1   
   162  156  164 1   
   163  157  158 1   
   164  157  165 1   
   165  157  166 1   
   166  158  159 1   
   167  158  160 1   
   168  167  168 1   
   169  167  172 1   
   170  168  169 1   
   171  168  170 1   
   172  168  171 1   
   173  174  175 1   
   174  174  176 1   
   175  177  178 1   
   176  177  179 1   
   177  180  181 1   
   178  180  182 1   
@<TRIPOS>SUBSTRUCTURE
     1 MOL         1 TEMP              0 ****  ****    0 ROOT
