@<TRIPOS>MOLECULE
MOL
  178   175     1     0     0
SMALL
resp


@<TRIPOS>ATOM
      1 C1          2.5670   -1.6820    4.6480 c3        1 MOL     -0.355670
      2 C2          3.8330   -1.4930    3.7830 c         1 MOL      0.635934
      3 O1          3.8520   -0.7350    2.8340 o         1 MOL     -0.543090
      4 H1          2.8430   -2.1330    5.6010 hc        1 MOL      0.087759
      5 H2          2.1010   -0.7130    4.8270 hc        1 MOL      0.087759
      6 H3          1.8650   -2.3330    4.1280 hc        1 MOL      0.087759
      7 N1          4.9270   -2.2060    4.0680 n         1 MOL     -0.478204
      8 C3          6.2230   -1.9960    3.5040 c3        1 MOL      0.199716
      9 C4          6.3330   -2.4210    2.0320 c         1 MOL      0.414811
     10 O2          7.2210   -2.0450    1.2490 o         1 MOL     -0.421963
     11 C5          7.2830   -2.6890    4.4280 c3        1 MOL     -0.212432
     12 C6          8.7330   -2.1330    4.2570 c         1 MOL      0.769213
     13 O3          9.6700   -2.8260    4.7150 o         1 MOL     -0.737340
     14 O4          8.8410   -1.0080    3.7280 o         1 MOL     -0.737340
     15 H4          4.8050   -2.8660    4.8310 hn        1 MOL      0.260755
     16 H5          6.4810   -0.9450    3.5900 h1        1 MOL      0.045823
     17 H6          7.2020   -3.7190    4.0720 hc        1 MOL     -0.006376
     18 H7          6.9890   -2.6700    5.4730 hc        1 MOL     -0.006376
     19 N2          5.3670   -3.3050    1.6420 n         1 MOL     -0.349863
     20 C7          5.0300   -3.8120    0.3410 c3        1 MOL      0.315012
     21 C8          4.7620   -2.6540   -0.6510 c         1 MOL      0.694385
     22 O5          3.6140   -2.4840   -1.0930 o         1 MOL     -0.679367
     23 C9          6.0170   -4.8640   -0.1830 c3        1 MOL     -0.492938
     24 H8          4.6340   -3.4220    2.3390 hn        1 MOL      0.159245
     25 H9          4.1100   -4.3790    0.4660 h1        1 MOL      0.045520
     26 H10         5.5340   -5.2050   -1.0960 hc        1 MOL      0.122334
     27 H11         6.9480   -4.3640   -0.4800 hc        1 MOL      0.122334
     28 H12         6.1060   -5.6380    0.5700 hc        1 MOL      0.122334
     29 N3          5.7400   -1.7860   -1.0340 n         1 MOL     -0.841834
     30 C10         5.5970   -0.7880   -2.1100 c3        1 MOL      0.806064
     31 C11         5.8050    0.6730   -1.6450 c         1 MOL      0.417544
     32 O6          6.3290    1.5180   -2.3750 o         1 MOL     -0.524740
     33 C12         6.2880   -1.0400   -3.4490 c3        1 MOL     -0.310462
     34 C13         7.7490   -1.3410   -3.3590 c         1 MOL      0.621843
     35 O7          8.5210   -1.0870   -4.3240 o         1 MOL     -0.673225
     36 O8          8.2790   -1.7660   -2.2650 o         1 MOL     -0.673225
     37 H13         6.6250   -1.8080   -0.5440 hn        1 MOL      0.316827
     38 H14         4.5430   -0.7670   -2.3990 h1        1 MOL     -0.164958
     39 H15         6.0790   -0.2640   -4.1870 hc        1 MOL      0.029415
     40 H16         5.8520   -1.9630   -3.8250 hc        1 MOL      0.029415
     41 N4          5.4780    1.0210   -0.4070 n         1 MOL     -0.300591
     42 C14         5.4690    2.4690    0.1340 c3        1 MOL     -0.110094
     43 C15         4.4230    3.4250   -0.4470 c         1 MOL      0.574361
     44 O9          4.6830    4.6260   -0.6480 o         1 MOL     -0.585271
     45 H17         5.0760    0.2830    0.1560 hn        1 MOL      0.219316
     46 H18         6.4270    2.9430   -0.1110 h1        1 MOL      0.096443
     47 H19         5.3230    2.4100    1.2110 h1        1 MOL      0.096443
     48 N5          3.3380    2.9170   -0.9170 n         1 MOL     -0.320414
     49 C16         2.4520    3.5660   -1.8560 c3        1 MOL     -0.063770
     50 C17         1.8310    4.7760   -1.1840 c         1 MOL      0.653057
     51 O10         1.5580    4.7360    0.0270 o         1 MOL     -0.545089
     52 C18         1.3340    2.6190   -2.2710 c3        1 MOL     -0.455682
     53 C19         1.8450    1.5490   -3.1870 c         1 MOL      0.717571
     54 N6          2.4270    1.8630   -4.3180 n         1 MOL     -0.724964
     55 O11         1.8900    0.3340   -2.8140 o         1 MOL     -0.644281
     56 H20         3.2670    1.9280   -0.7290 hn        1 MOL      0.288512
     57 H21         2.9510    3.8320   -2.7890 h1        1 MOL      0.073521
     58 H22         0.4930    3.1100   -2.7750 hc        1 MOL      0.175937
     59 H23         0.9770    2.1310   -1.3750 hc        1 MOL      0.175937
     60 H24         2.2140    2.7080   -4.8280 hn        1 MOL      0.344970
     61 H25         2.7990    1.0930   -4.8450 hn        1 MOL      0.344970
     62 N7          1.6860    5.8300   -1.9590 n         1 MOL     -0.438016
     63 C20         1.0900    7.0820   -1.3700 c3        1 MOL     -0.105986
     64 C21        -0.4060    6.9190   -1.2430 c         1 MOL      0.493606
     65 O12        -1.0870    6.2130   -2.0160 o         1 MOL     -0.495574
     66 H26         2.1030    5.9170   -2.8680 hn        1 MOL      0.300537
     67 H27         1.3820    7.8910   -2.0430 h1        1 MOL      0.105539
     68 H28         1.5960    7.3880   -0.4560 h1        1 MOL      0.105539
     69 N8         -0.9730    7.6210   -0.2380 n         1 MOL     -0.359947
     70 C22        -2.4330    7.8380    0.0370 c3        1 MOL     -0.256218
     71 C23        -3.0860    6.6040    0.6560 c         1 MOL      0.469603
     72 O13        -4.2530    6.6670    0.8830 o         1 MOL     -0.574641
     73 C24        -2.7120    9.1550    0.8430 c3        1 MOL      0.587718
     74 C25        -2.3300    9.0520    2.3350 c3        1 MOL     -0.244189
     75 O14        -1.9220   10.1680    0.2760 oh        1 MOL     -0.709161
     76 H29        -0.4080    8.2750    0.2910 hn        1 MOL      0.209159
     77 H30        -2.9500    7.9840   -0.9040 h1        1 MOL      0.149034
     78 H31        -3.7820    9.3720    0.8260 h1        1 MOL      0.001146
     79 H32        -0.9770   10.0560    0.4100 ho        1 MOL      0.414549
     80 H33        -3.2410    8.6400    2.7710 hc        1 MOL      0.044997
     81 H34        -1.5590    8.2880    2.3880 hc        1 MOL      0.044997
     82 H35        -2.1240   10.0380    2.7500 hc        1 MOL      0.044997
     83 N9         -2.3880    5.4950    0.9130 n         1 MOL      0.009448
     84 C26        -3.0120    4.2570    1.2880 c3        1 MOL      0.113096
     85 C27        -2.5340    3.1010    0.4290 c         1 MOL      0.218452
     86 O15        -1.5340    3.2430   -0.2180 o         1 MOL     -0.300046
     87 C28        -2.8860    4.0180    2.8190 c3        1 MOL      0.143166
     88 C29        -1.4830    3.9620    3.5190 c3        1 MOL     -0.138379
     89 C30        -3.7100    5.0180    3.5970 c3        1 MOL     -0.212374
     90 C31        -0.5110    5.0330    3.0360 c3        1 MOL     -0.234040
     91 H36        -1.4320    5.4430    0.5820 hn        1 MOL     -0.000578
     92 H37        -4.0580    4.3840    1.0000 h1        1 MOL      0.033430
     93 H38        -3.3500    3.0580    3.0230 hc        1 MOL     -0.057898
     94 H39        -1.0620    3.0350    3.1380 hc        1 MOL      0.067539
     95 H40        -1.6090    3.9390    4.5960 hc        1 MOL      0.067539
     96 H41        -3.5910    4.9540    4.6810 hc        1 MOL      0.041729
     97 H42        -3.3600    6.0010    3.2940 hc        1 MOL      0.041729
     98 H43        -4.7480    4.9120    3.2780 hc        1 MOL      0.041729
     99 H44        -0.0950    4.7020    2.0880 hc        1 MOL      0.082539
    100 H45        -1.0070    6.0000    3.0460 hc        1 MOL      0.082539
    101 H46         0.3080    4.9640    3.7470 hc        1 MOL      0.082539
    102 N10        -3.1650    1.9060    0.5150 n         1 MOL     -0.332100
    103 C32        -2.6570    0.7010   -0.0840 c3        1 MOL      0.004569
    104 C33        -3.6350   -0.4900   -0.2390 c         1 MOL      0.508426
    105 O16        -3.1920   -1.6490   -0.2350 o         1 MOL     -0.504185
    106 C34        -1.3110    0.2330    0.6320 c3        1 MOL     -0.275867
    107 C35        -0.3240   -0.4470   -0.3330 c         1 MOL      0.616087
    108 O17         0.8050   -0.7890    0.0320 o         1 MOL     -0.687032
    109 O18        -0.6530   -0.7180   -1.5180 o         1 MOL     -0.687032
    110 H47        -4.0580    1.8920    0.9770 hn        1 MOL      0.250046
    111 H48        -2.4290    0.9980   -1.1130 h1        1 MOL      0.058424
    112 H49        -1.5600   -0.4230    1.4560 hc        1 MOL      0.122037
    113 H50        -0.7960    1.0950    1.0520 hc        1 MOL      0.122037
    114 N11        -4.9140   -0.1600   -0.2460 n         1 MOL     -0.382005
    115 C36        -5.9660   -1.0960   -0.6160 c3        1 MOL      0.197002
    116 C37        -6.1560   -2.2790    0.3180 c         1 MOL      0.312865
    117 O19        -6.1060   -2.0310    1.5460 o         1 MOL     -0.531844
    118 C38        -7.2800   -0.3690   -0.8690 c3        1 MOL     -0.231728
    119 C39        -8.4590   -1.1360   -1.3610 ca        1 MOL      0.137151
    120 C40        -8.6260   -1.3410   -2.6950 ca        1 MOL     -0.175190
    121 C41        -9.2540   -1.7820   -0.4720 ca        1 MOL     -0.175190
    122 C42        -9.6050   -2.2210   -3.1930 ca        1 MOL     -0.161284
    123 C43       -10.1940   -2.7300   -0.9200 ca        1 MOL     -0.161284
    124 C44       -10.4270   -2.9370   -2.2630 ca        1 MOL     -0.054796
    125 H51        -5.2120    0.7890   -0.0740 hn        1 MOL      0.229320
    126 H52        -5.7640   -1.5420   -1.5900 h1        1 MOL      0.035059
    127 H53        -7.0500    0.3580   -1.6460 hc        1 MOL      0.079937
    128 H54        -7.6710    0.1940   -0.0190 hc        1 MOL      0.079937
    129 H55        -7.9570   -0.8010   -3.3570 ha        1 MOL      0.122634
    130 H56        -9.1100   -1.6970    0.6070 ha        1 MOL      0.122634
    131 H57        -9.6450   -2.4430   -4.2540 ha        1 MOL      0.111971
    132 H58       -10.7120   -3.4060   -0.2560 ha        1 MOL      0.111971
    133 H59       -11.1750   -3.6420   -2.5790 ha        1 MOL      0.091123
    134 N12        -6.4400   -3.5150   -0.1020 n         1 MOL     -0.009855
    135 C45        -6.3560   -4.6740    0.8060 c3        1 MOL      0.149113
    136 C46        -5.1570   -4.8260    1.6840 c         1 MOL      0.183448
    137 O20        -5.2120   -5.5560    2.6870 o         1 MOL     -0.486081
    138 C47        -6.5510   -5.8840   -0.1680 c3        1 MOL     -0.249581
    139 C48        -5.9280   -5.4370   -1.4270 c3        1 MOL      0.173024
    140 C49        -6.3840   -3.9820   -1.4810 c3        1 MOL     -0.212992
    141 H60        -7.1840   -4.6390    1.5130 h1        1 MOL      0.052745
    142 H61        -6.0580   -6.7860    0.1900 hc        1 MOL      0.078375
    143 H62        -7.6090   -6.1080   -0.2920 hc        1 MOL      0.078375
    144 H63        -4.8400   -5.4310   -1.2980 hc        1 MOL     -0.007927
    145 H64        -6.0390   -6.0050   -2.3440 hc        1 MOL     -0.007927
    146 H65        -5.6870   -3.4040   -2.0860 h1        1 MOL      0.068910
    147 H66        -7.3890   -4.0190   -1.8870 h1        1 MOL      0.068910
    148 N13        -3.9880   -4.2630    1.2820 n         1 MOL      0.019723
    149 C50        -2.7290   -4.3560    2.1240 c3        1 MOL     -0.285672
    150 C51        -2.8210   -3.3980    3.3650 c         1 MOL      0.445268
    151 O21        -2.0990   -3.5220    4.3310 o         1 MOL     -0.530239
    152 C52        -1.4450   -3.9950    1.3670 c3        1 MOL      0.076779
    153 C53        -1.1470   -5.0500    0.2050 c3        1 MOL     -0.104941
    154 C54        -0.1790   -4.3950   -0.8340 c         1 MOL      0.718802
    155 O22         0.9580   -3.9880   -0.5410 o         1 MOL     -0.811478
    156 O23        -0.5500   -4.0580   -1.9970 o         1 MOL     -0.811478
    157 H67        -3.9520   -3.7850    0.3960 hn        1 MOL      0.211502
    158 H68        -2.7390   -5.3900    2.4350 h1        1 MOL      0.138589
    159 H69        -0.5850   -3.9790    2.0480 hc        1 MOL      0.084462
    160 H70        -1.6760   -3.0210    0.9470 hc        1 MOL      0.084462
    161 H71        -2.1030   -5.2500   -0.2920 hc        1 MOL     -0.004277
    162 H72        -0.8150   -6.0210    0.5780 hc        1 MOL     -0.004277
    163 N14        -3.5830   -2.3030    3.2030 n         1 MOL     -0.125751
    164 C55        -3.8370   -1.3750    4.3250 c3        1 MOL     -0.211184
    165 H73        -3.4550   -1.8100    5.2490 h1        1 MOL      0.083930
    166 H74        -3.3330   -0.4270    4.1340 h1        1 MOL      0.083930
    167 H75        -4.9090   -1.2040    4.4210 h1        1 MOL      0.083930
    168 H76        -4.0930   -2.1060    2.3550 hn        1 MOL      0.195371
    169 Ca1         1.3310   -2.2400   -2.4530 Ca        1 MOL      1.834800
    170 O24         2.7670   -1.7550   -4.9350 oh        1 MOL     -0.831322
    171 H77         1.9650   -1.6740   -5.4530 ho        1 MOL      0.404393
    172 H78         3.3520   -2.2630   -5.4930 ho        1 MOL      0.404393
    173 O25        -0.0890   -1.9750   -4.6070 oh        1 MOL     -0.831322
    174 H79        -0.3350   -2.6970   -5.1960 ho        1 MOL      0.404393
    175 H80        -0.8040   -1.3440   -4.6940 ho        1 MOL      0.404393
    176 O26         2.4590   -4.6240   -3.5910 oh        1 MOL     -0.831322
    177 H81         3.1390   -5.2830   -3.4180 ho        1 MOL      0.404393
    178 H82         1.9740   -4.9760   -4.3410 ho        1 MOL      0.404393
@<TRIPOS>BOND
     1    1    2 1   
     2    1    4 1   
     3    1    5 1   
     4    1    6 1   
     5    2    3 2   
     6    2    7 1   
     7    7    8 1   
     8    7   15 1   
     9    8    9 1   
    10    8   11 1   
    11    8   16 1   
    12    9   10 2   
    13    9   19 1   
    14   11   12 1   
    15   11   17 1   
    16   11   18 1   
    17   12   13 1   
    18   12   14 1   
    19   19   20 1   
    20   19   24 1   
    21   20   21 1   
    22   20   23 1   
    23   20   25 1   
    24   21   22 2   
    25   21   29 1   
    26   23   26 1   
    27   23   27 1   
    28   23   28 1   
    29   29   30 1   
    30   29   37 1   
    31   30   31 1   
    32   30   33 1   
    33   30   38 1   
    34   31   32 2   
    35   31   41 1   
    36   33   34 1   
    37   33   39 1   
    38   33   40 1   
    39   34   35 1   
    40   34   36 1   
    41   41   42 1   
    42   41   45 1   
    43   42   43 1   
    44   42   46 1   
    45   42   47 1   
    46   43   44 2   
    47   43   48 1   
    48   48   49 1   
    49   48   56 1   
    50   49   50 1   
    51   49   52 1   
    52   49   57 1   
    53   50   51 2   
    54   50   62 1   
    55   52   53 1   
    56   52   58 1   
    57   52   59 1   
    58   53   54 1   
    59   53   55 2   
    60   54   60 1   
    61   54   61 1   
    62   62   63 1   
    63   62   66 1   
    64   63   64 1   
    65   63   67 1   
    66   63   68 1   
    67   64   65 2   
    68   64   69 1   
    69   69   70 1   
    70   69   76 1   
    71   70   71 1   
    72   70   73 1   
    73   70   77 1   
    74   71   72 2   
    75   71   83 1   
    76   73   74 1   
    77   73   75 1   
    78   73   78 1   
    79   74   80 1   
    80   74   81 1   
    81   74   82 1   
    82   75   79 1   
    83   83   84 1   
    84   83   91 1   
    85   84   85 1   
    86   84   87 1   
    87   84   92 1   
    88   85   86 2   
    89   85  102 1   
    90   87   88 1   
    91   87   89 1   
    92   87   93 1   
    93   88   90 1   
    94   88   94 1   
    95   88   95 1   
    96   89   96 1   
    97   89   97 1   
    98   89   98 1   
    99   90   99 1   
   100   90  100 1   
   101   90  101 1   
   102  102  103 1   
   103  102  110 1   
   104  103  104 1   
   105  103  106 1   
   106  103  111 1   
   107  104  105 2   
   108  104  114 1   
   109  106  107 1   
   110  106  112 1   
   111  106  113 1   
   112  107  108 1   
   113  107  109 1   
   114  114  115 1   
   115  114  125 1   
   116  115  116 1   
   117  115  118 1   
   118  115  126 1   
   119  116  117 2   
   120  116  134 1   
   121  118  119 1   
   122  118  127 1   
   123  118  128 1   
   124  119  120 ar  
   125  119  121 ar  
   126  120  122 ar  
   127  120  129 1   
   128  121  123 ar  
   129  121  130 1   
   130  122  124 ar  
   131  122  131 1   
   132  123  124 ar  
   133  123  132 1   
   134  124  133 1   
   135  134  135 1   
   136  134  140 1   
   137  135  136 1   
   138  135  138 1   
   139  135  141 1   
   140  136  137 2   
   141  136  148 1   
   142  138  139 1   
   143  138  142 1   
   144  138  143 1   
   145  139  140 1   
   146  139  144 1   
   147  139  145 1   
   148  140  146 1   
   149  140  147 1   
   150  148  149 1   
   151  148  157 1   
   152  149  150 1   
   153  149  152 1   
   154  149  158 1   
   155  150  151 2   
   156  150  163 1   
   157  152  153 1   
   158  152  159 1   
   159  152  160 1   
   160  153  154 1   
   161  153  161 1   
   162  153  162 1   
   163  154  155 1   
   164  154  156 1   
   165  163  164 1   
   166  163  168 1   
   167  164  165 1   
   168  164  166 1   
   169  164  167 1   
   170  170  171 1   
   171  170  172 1   
   172  173  174 1   
   173  173  175 1   
   174  176  177 1   
   175  176  178 1   
@<TRIPOS>SUBSTRUCTURE
     1 MOL         1 TEMP              0 ****  ****    0 ROOT
