@<TRIPOS>MOLECULE
MOL
  191   184     1     0     0
SMALL
resp


@<TRIPOS>ATOM
      1 C1          6.8990    3.7020   -0.0800 c3        1 MOL     -0.434764
      2 C2          7.0330    2.2520   -0.5620 c         1 MOL      0.720172
      3 O1          6.1080    1.4480   -0.4620 o         1 MOL     -0.627755
      4 H1          6.8520    3.7190    1.0090 hc        1 MOL      0.106174
      5 H2          7.7610    4.2790   -0.4150 hc        1 MOL      0.106174
      6 H3          5.9880    4.1380   -0.4880 hc        1 MOL      0.106174
      7 N1          8.0820    2.0150   -1.2600 n         1 MOL     -0.497484
      8 C3          8.3510    0.8010   -2.0480 c3        1 MOL     -0.073316
      9 C4          8.3350   -0.5350   -1.2230 c         1 MOL      0.607973
     10 O2          7.7470   -1.5110   -1.6670 o         1 MOL     -0.500483
     11 C5          7.5050    0.7110   -3.4450 c3        1 MOL     -0.129336
     12 C6          7.5300    2.0750   -4.2470 c         1 MOL      0.701140
     13 O3          8.6180    2.5270   -4.6330 o         1 MOL     -0.672228
     14 O4          6.4020    2.4890   -4.5860 o         1 MOL     -0.672228
     15 H4          8.8180    2.7110   -1.2720 hn        1 MOL      0.306957
     16 H5          9.3690    0.9430   -2.4120 h1        1 MOL      0.053955
     17 H6          6.4750    0.4680   -3.1880 hc        1 MOL      0.064407
     18 H7          7.8420   -0.1520   -4.0270 hc        1 MOL      0.064407
     19 N2          8.7080   -0.4000    0.0660 n         1 MOL     -0.568067
     20 C7          8.5000   -1.4180    1.0770 c3        1 MOL     -0.059874
     21 C8          7.1240   -1.8020    1.6180 c         1 MOL      0.634744
     22 O5          7.0250   -2.5530    2.5640 o         1 MOL     -0.571295
     23 C9          9.4440   -0.9200    2.2210 c3        1 MOL      0.045485
     24 C10         9.0010    0.3440    2.9100 c3        1 MOL     -0.095185
     25 C11        10.0690    0.9230    3.8150 c3        1 MOL     -0.477781
     26 C12         9.6590    2.1760    4.5770 c3        1 MOL      0.218239
     27 N3         10.8360    2.7510    5.2450 n4        1 MOL     -0.229788
     28 H8          9.1790    0.4700    0.2760 hn        1 MOL      0.322094
     29 H9          8.9350   -2.3570    0.7400 h1        1 MOL      0.130795
     30 H10        10.4640   -0.6320    1.9660 hc        1 MOL      0.013243
     31 H11         9.5640   -1.7370    2.9450 hc        1 MOL      0.013243
     32 H12         8.2160    0.0900    3.6200 hc        1 MOL      0.089662
     33 H13         8.7190    1.1030    2.1710 hc        1 MOL      0.089662
     34 H14        10.9920    1.0780    3.2600 hc        1 MOL      0.166494
     35 H15        10.1530    0.1270    4.5530 hc        1 MOL      0.166494
     36 H16         8.8460    2.0910    5.2880 hx        1 MOL      0.032066
     37 H17         9.3690    2.8700    3.7850 hx        1 MOL      0.032066
     38 H18        11.6270    2.7770    4.6070 hn        1 MOL      0.221655
     39 H19        10.6330    3.7240    5.4000 hn        1 MOL      0.221655
     40 H20        11.0750    2.2760    6.1000 hn        1 MOL      0.221655
     41 N4          6.1160   -1.2060    1.0170 n         1 MOL     -0.517883
     42 C13         4.7580   -1.4310    1.4280 c3        1 MOL     -0.033708
     43 C14         4.2650   -2.8300    1.1190 c         1 MOL      0.708981
     44 O6          4.6560   -3.3250    0.0670 o         1 MOL     -0.500415
     45 C15         3.9110   -0.3420    0.7170 c3        1 MOL     -0.228503
     46 C16         2.4910   -0.3500    1.0190 c         1 MOL      0.738822
     47 O7          2.1000    0.3580    1.9480 o         1 MOL     -0.717064
     48 O8          1.6760   -1.1020    0.4320 o         1 MOL     -0.717064
     49 H21         6.3760   -0.7110    0.1760 hn        1 MOL      0.352146
     50 H22         4.6880   -1.2510    2.4990 h1        1 MOL      0.035948
     51 H23         4.0450   -0.5040   -0.3480 hc        1 MOL      0.091371
     52 H24         4.1840    0.6650    1.0180 hc        1 MOL      0.091371
     53 N5          3.4460   -3.4050    2.0140 n         1 MOL     -0.591626
     54 C17         2.9800   -4.8420    1.8780 c3        1 MOL     -0.105338
     55 C18         1.9940   -5.1870    0.7750 c         1 MOL      0.524659
     56 O9          1.5790   -6.3240    0.6200 o         1 MOL     -0.566849
     57 H25         3.1120   -2.9610    2.8530 hn        1 MOL      0.364473
     58 H26         2.4530   -5.1300    2.7810 h1        1 MOL      0.099593
     59 H27         3.8010   -5.5430    1.7430 h1        1 MOL      0.099593
     60 N6          1.6690   -4.1630   -0.0130 n         1 MOL     -0.180248
     61 C19         1.0970   -4.3220   -1.3270 c3        1 MOL      0.116081
     62 C20         1.9710   -3.5810   -2.4250 c         1 MOL      0.435695
     63 O10         2.2880   -4.1770   -3.4240 o         1 MOL     -0.528120
     64 C21        -0.3780   -3.8090   -1.3190 c3        1 MOL     -0.813824
     65 C22        -1.4610   -4.6360   -0.6010 c         1 MOL      0.897385
     66 N7         -1.6120   -5.8690   -1.0320 n         1 MOL     -0.815548
     67 O11        -2.2050   -4.2050    0.2550 o         1 MOL     -0.682596
     68 H28         1.9120   -3.2170    0.2470 hn        1 MOL      0.205747
     69 H29         1.2840   -5.3660   -1.5720 h1        1 MOL      0.085083
     70 H30        -0.7860   -3.7020   -2.3270 hc        1 MOL      0.228664
     71 H31        -0.3940   -2.8400   -0.8180 hc        1 MOL      0.228664
     72 H32        -0.9910   -6.1670   -1.7720 hn        1 MOL      0.395697
     73 H33        -2.1810   -6.5100   -0.5000 hn        1 MOL      0.395697
     74 N8          2.1930   -2.2740   -2.2580 n         1 MOL     -0.042927
     75 C23         2.7920   -1.3320   -3.2640 c3        1 MOL      0.187027
     76 C24         2.2970    0.0880   -3.0960 c         1 MOL      0.382935
     77 O12         2.4880    0.8960   -4.0150 o         1 MOL     -0.468243
     78 H34         1.9910   -1.9800   -1.3170 hn        1 MOL     -0.168633
     79 H35         2.6280   -1.5420   -4.3220 h1        1 MOL      0.021995
     80 H36         3.8690   -1.4120   -3.1300 h1        1 MOL      0.021995
     81 N9          1.7290    0.4740   -1.9160 n         1 MOL     -0.422176
     82 C25         1.0470    1.7750   -1.7800 c3        1 MOL     -0.020969
     83 C26        -0.2650    1.5870   -0.9510 c         1 MOL      0.278657
     84 O13        -0.3210    0.9170    0.0960 o         1 MOL     -0.574226
     85 C27         1.9890    2.7020   -1.0840 c3        1 MOL     -0.301273
     86 C28         1.3200    4.0130   -0.6970 ca        1 MOL     -0.061330
     87 C29         1.1830    5.0640   -1.7100 ca        1 MOL     -0.069908
     88 C30         0.9380    4.3050    0.6370 ca        1 MOL     -0.069908
     89 C31         0.6620    6.3430   -1.2940 ca        1 MOL     -0.320568
     90 C32         0.4870    5.5570    1.0330 ca        1 MOL     -0.320568
     91 C33         0.3680    6.6200    0.0830 ca        1 MOL      0.341559
     92 O14        -0.1120    7.8330    0.4260 oh        1 MOL     -0.432369
     93 H37         1.5840   -0.1880   -1.1690 hn        1 MOL      0.449067
     94 H38         0.7340    2.1900   -2.7310 h1        1 MOL      0.080245
     95 H39         2.8410    2.9030   -1.7220 hc        1 MOL      0.216504
     96 H40         2.3120    2.2340   -0.1550 hc        1 MOL      0.216504
     97 H41         1.6440    4.9820   -2.6840 ha        1 MOL      0.130148
     98 H42         0.9690    3.5770    1.4420 ha        1 MOL      0.130148
     99 H43         0.5910    7.1880   -1.9640 ha        1 MOL      0.165949
    100 H44         0.2020    5.7450    2.0570 ha        1 MOL      0.165949
    101 H45        -0.3780    7.7280    1.3460 ho        1 MOL      0.333097
    102 N10        -1.3430    2.2490   -1.4030 n         1 MOL      0.040707
    103 C34        -2.7060    2.1300   -0.8170 c3        1 MOL      0.010866
    104 C35        -3.2750    0.8260   -1.3290 c         1 MOL      0.497863
    105 O15        -4.0300    0.2130   -0.6550 o         1 MOL     -0.659407
    106 C36        -3.5590    3.2820   -1.3040 c3        1 MOL      0.088561
    107 C37        -3.0180    4.6180   -0.8870 c3        1 MOL     -0.154011
    108 C38        -5.0590    3.1420   -0.8030 c3        1 MOL     -0.369430
    109 C39        -2.8320    4.8640    0.6560 c3        1 MOL      0.021351
    110 H46        -1.2120    2.9210   -2.1360 hn        1 MOL      0.147766
    111 H47        -2.6500    2.1730    0.2740 h1        1 MOL      0.102607
    112 H48        -3.5310    3.2530   -2.4000 hc        1 MOL     -0.045821
    113 H49        -3.6790    5.4020   -1.2540 hc        1 MOL      0.079557
    114 H50        -2.1290    4.8210   -1.4860 hc        1 MOL      0.079557
    115 H51        -5.4740    2.2290   -1.2380 hc        1 MOL      0.123739
    116 H52        -5.0100    3.1440    0.2890 hc        1 MOL      0.123739
    117 H53        -5.6790    3.9850   -1.0890 hc        1 MOL      0.123739
    118 H54        -1.9990    4.2350    0.9550 hc        1 MOL     -0.020872
    119 H55        -2.6580    5.9020    0.9410 hc        1 MOL     -0.020872
    120 H56        -3.7270    4.5090    1.1680 hc        1 MOL     -0.020872
    121 N11        -2.7280    0.2950   -2.4020 n         1 MOL     -0.243746
    122 C40        -2.8390   -1.1260   -2.9270 c3        1 MOL     -0.135439
    123 C41        -4.2560   -1.5300   -3.2940 c         1 MOL      0.437285
    124 O16        -4.7230   -2.6400   -2.9640 o         1 MOL     -0.495016
    125 C42        -1.8830   -1.3780   -4.0690 c3        1 MOL     -0.120157
    126 O17        -0.6470   -1.4390   -3.4600 oh        1 MOL     -0.356387
    127 H57        -1.9880    0.8750   -2.7670 hn        1 MOL      0.146080
    128 H58        -2.6390   -1.8550   -2.1410 h1        1 MOL      0.169278
    129 H59        -1.9360   -0.6100   -4.8330 h1        1 MOL      0.108767
    130 H60        -2.1680   -2.3080   -4.5620 h1        1 MOL      0.108767
    131 H61        -0.0110   -1.6680   -4.1450 ho        1 MOL      0.350595
    132 N12        -5.0210   -0.5940   -3.7710 n         1 MOL     -0.309007
    133 C43        -6.4440   -0.7380   -4.1350 c3        1 MOL      0.144035
    134 C44        -7.4350   -1.1200   -3.0200 c         1 MOL      0.589353
    135 O18        -8.5160   -1.6310   -3.2480 o         1 MOL     -0.536218
    136 C45        -6.5990   -1.5650   -5.4010 c3        1 MOL     -0.313937
    137 H62        -4.6680    0.3500   -3.7480 hn        1 MOL      0.223736
    138 H63        -6.7940    0.2510   -4.4190 h1        1 MOL      0.059670
    139 H64        -7.5680   -1.4480   -5.8880 hc        1 MOL      0.094159
    140 H65        -5.8600   -1.0710   -6.0360 hc        1 MOL      0.094159
    141 H66        -6.3710   -2.6300   -5.2680 hc        1 MOL      0.094159
    142 N13        -7.0410   -0.8100   -1.7960 n         1 MOL     -0.738103
    143 C46        -7.7160   -1.2670   -0.5550 c3        1 MOL      0.604847
    144 C47        -8.2180   -0.1090    0.3620 c         1 MOL      0.305105
    145 O19        -7.7930    1.0880    0.4030 o         1 MOL     -0.458784
    146 C48        -6.7470   -2.0420    0.3690 c3        1 MOL     -0.535164
    147 H67        -6.0620   -0.6200   -1.6150 hn        1 MOL      0.389683
    148 H68        -8.5520   -1.8940   -0.8650 h1        1 MOL     -0.030656
    149 H69        -5.8650   -1.4120    0.5230 hc        1 MOL      0.142851
    150 H70        -7.1420   -2.2370    1.3590 hc        1 MOL      0.142851
    151 H71        -6.4640   -2.9310   -0.1910 hc        1 MOL      0.142851
    152 N14        -9.2490   -0.4050    1.1360 n         1 MOL     -0.472315
    153 C49        -9.8910    0.4770    2.0820 c3        1 MOL     -0.143770
    154 C50       -10.3070    1.8610    1.5800 c         1 MOL      0.440495
    155 O20       -10.4020    2.8150    2.4130 o         1 MOL     -0.495309
    156 C51        -8.9690    0.5570    3.3390 c3        1 MOL      0.491820
    157 C52        -8.3950   -0.8170    3.8940 c3        1 MOL     -0.409709
    158 C53        -7.7740   -0.6590    5.2870 c         1 MOL      0.717847
    159 O21        -8.1030   -1.4790    6.1750 o         1 MOL     -0.672501
    160 O22        -7.0320    0.2710    5.5310 o         1 MOL     -0.672501
    161 H72        -9.6230   -1.3440    1.1250 hn        1 MOL      0.294761
    162 H73       -10.8080    0.0000    2.4190 h1        1 MOL      0.100395
    163 H74        -9.6170    0.9060    4.1500 hc        1 MOL     -0.065308
    164 H75        -8.2170    1.3530    3.4240 hc        1 MOL     -0.065308
    165 H76        -7.6540   -1.1580    3.1710 hc        1 MOL      0.050070
    166 H77        -9.1970   -1.5430    3.9660 hc        1 MOL      0.050070
    167 N15       -10.6440    2.0140    0.3000 n         1 MOL     -0.308692
    168 C54       -10.4900    3.2260   -0.4910 c3        1 MOL     -0.219436
    169 H78       -10.5920    2.9840   -1.5480 h1        1 MOL      0.106467
    170 H79       -11.2580    3.9460   -0.2070 h1        1 MOL      0.106467
    171 H80        -9.5050    3.6550   -0.3110 h1        1 MOL      0.106467
    172 H81       -10.7980    1.2020   -0.2880 hn        1 MOL      0.268085
    173 Ca1        -0.2290   -0.5870    2.3050 Ca        1 MOL      1.753025
    174 O23        -0.4250   -3.1350    2.4620 oh        1 MOL     -0.823537
    175 H82        -1.2350   -3.4950    2.0910 ho        1 MOL      0.413579
    176 H83        -0.2030   -3.7330    3.1660 ho        1 MOL      0.413579
    177 O24        -2.1710   -1.4020    0.6070 oh        1 MOL     -0.823537
    178 H84        -2.8360   -0.8330    0.2390 ho        1 MOL      0.413579
    179 H85        -2.5870   -2.2610    0.6780 ho        1 MOL      0.413579
    180 O25         1.8210   -1.8550    3.9110 oh        1 MOL     -0.823537
    181 H86         1.5890   -2.4070    4.6610 ho        1 MOL      0.413579
    182 H87         2.4060   -1.1880    4.2750 ho        1 MOL      0.413579
    183 O26        -2.7170    0.7420    2.2320 oh        1 MOL     -0.823537
    184 H88        -2.5980    1.5020    2.8090 ho        1 MOL      0.413579
    185 H89        -3.6420    0.5330    2.2910 ho        1 MOL      0.413579
    186 O27        -1.7070   -1.2190    4.4170 oh        1 MOL     -0.823537
    187 H90        -2.2580   -0.9550    5.1490 ho        1 MOL      0.413579
    188 H91        -2.1610   -1.9810    4.0470 ho        1 MOL      0.413579
    189 O28        -0.1390    1.4610    4.0330 oh        1 MOL     -0.823537
    190 H92        -0.0590    1.7690    4.9410 ho        1 MOL      0.413579
    191 H93        -0.7320    2.0810    3.6170 ho        1 MOL      0.413579
@<TRIPOS>BOND
     1    1    2 1   
     2    1    4 1   
     3    1    5 1   
     4    1    6 1   
     5    2    3 2   
     6    2    7 1   
     7    7    8 1   
     8    7   15 1   
     9    8    9 1   
    10    8   11 1   
    11    8   16 1   
    12    9   10 2   
    13    9   19 1   
    14   11   12 1   
    15   11   17 1   
    16   11   18 1   
    17   12   13 1   
    18   12   14 1   
    19   19   20 1   
    20   19   28 1   
    21   20   21 1   
    22   20   23 1   
    23   20   29 1   
    24   21   22 2   
    25   21   41 1   
    26   23   24 1   
    27   23   30 1   
    28   23   31 1   
    29   24   25 1   
    30   24   32 1   
    31   24   33 1   
    32   25   26 1   
    33   25   34 1   
    34   25   35 1   
    35   26   27 1   
    36   26   36 1   
    37   26   37 1   
    38   27   38 1   
    39   27   39 1   
    40   27   40 1   
    41   41   42 1   
    42   41   49 1   
    43   42   43 1   
    44   42   45 1   
    45   42   50 1   
    46   43   44 2   
    47   43   53 1   
    48   45   46 1   
    49   45   51 1   
    50   45   52 1   
    51   46   47 1   
    52   46   48 1   
    53   53   54 1   
    54   53   57 1   
    55   54   55 1   
    56   54   58 1   
    57   54   59 1   
    58   55   56 2   
    59   55   60 1   
    60   60   61 1   
    61   60   68 1   
    62   61   62 1   
    63   61   64 1   
    64   61   69 1   
    65   62   63 2   
    66   62   74 1   
    67   64   65 1   
    68   64   70 1   
    69   64   71 1   
    70   65   66 1   
    71   65   67 2   
    72   66   72 1   
    73   66   73 1   
    74   74   75 1   
    75   74   78 1   
    76   75   76 1   
    77   75   79 1   
    78   75   80 1   
    79   76   77 2   
    80   76   81 1   
    81   81   82 1   
    82   81   93 1   
    83   82   83 1   
    84   82   85 1   
    85   82   94 1   
    86   83   84 2   
    87   83  102 1   
    88   85   86 1   
    89   85   95 1   
    90   85   96 1   
    91   86   87 ar  
    92   86   88 ar  
    93   87   89 ar  
    94   87   97 1   
    95   88   90 ar  
    96   88   98 1   
    97   89   91 ar  
    98   89   99 1   
    99   90   91 ar  
   100   90  100 1   
   101   91   92 1   
   102   92  101 1   
   103  102  103 1   
   104  102  110 1   
   105  103  104 1   
   106  103  106 1   
   107  103  111 1   
   108  104  105 2   
   109  104  121 1   
   110  106  107 1   
   111  106  108 1   
   112  106  112 1   
   113  107  109 1   
   114  107  113 1   
   115  107  114 1   
   116  108  115 1   
   117  108  116 1   
   118  108  117 1   
   119  109  118 1   
   120  109  119 1   
   121  109  120 1   
   122  121  122 1   
   123  121  127 1   
   124  122  123 1   
   125  122  125 1   
   126  122  128 1   
   127  123  124 2   
   128  123  132 1   
   129  125  126 1   
   130  125  129 1   
   131  125  130 1   
   132  126  131 1   
   133  132  133 1   
   134  132  137 1   
   135  133  134 1   
   136  133  136 1   
   137  133  138 1   
   138  134  135 2   
   139  134  142 1   
   140  136  139 1   
   141  136  140 1   
   142  136  141 1   
   143  142  143 1   
   144  142  147 1   
   145  143  144 1   
   146  143  146 1   
   147  143  148 1   
   148  144  145 2   
   149  144  152 1   
   150  146  149 1   
   151  146  150 1   
   152  146  151 1   
   153  152  153 1   
   154  152  161 1   
   155  153  154 1   
   156  153  156 1   
   157  153  162 1   
   158  154  155 2   
   159  154  167 1   
   160  156  157 1   
   161  156  163 1   
   162  156  164 1   
   163  157  158 1   
   164  157  165 1   
   165  157  166 1   
   166  158  159 1   
   167  158  160 1   
   168  167  168 1   
   169  167  172 1   
   170  168  169 1   
   171  168  170 1   
   172  168  171 1   
   173  174  175 1   
   174  174  176 1   
   175  177  178 1   
   176  177  179 1   
   177  180  181 1   
   178  180  182 1   
   179  183  184 1   
   180  183  185 1   
   181  186  187 1   
   182  186  188 1   
   183  189  190 1   
   184  189  191 1   
@<TRIPOS>SUBSTRUCTURE
     1 MOL         1 TEMP              0 ****  ****    0 ROOT
