@<TRIPOS>MOLECULE
MOL
  198   191     1     0     0
SMALL
resp


@<TRIPOS>ATOM
      1 C1          2.0630    3.8340    3.5230 c3        1 MOL     -0.270754
      2 C2          0.8850    3.6720    2.5910 c         1 MOL      0.557572
      3 O1          0.0360    2.8130    2.7970 o         1 MOL     -0.553920
      4 H1          1.7530    3.6040    4.5430 hc        1 MOL      0.043333
      5 H2          2.8600    3.1530    3.2240 hc        1 MOL      0.043333
      6 H3          2.4260    4.8600    3.4770 hc        1 MOL      0.043333
      7 N1          1.0680    4.2700    1.4510 n         1 MOL     -0.250848
      8 C3          0.3530    4.2030    0.2760 c3        1 MOL     -0.222582
      9 C4         -1.0850    4.6180    0.5740 c         1 MOL      0.540192
     10 O2         -2.0150    3.8150    0.5970 o         1 MOL     -0.427380
     11 C5          0.5290    2.8650   -0.4600 c3        1 MOL     -0.143877
     12 C6         -0.2070    2.8540   -1.7710 c         1 MOL      0.606309
     13 O3         -0.3820    3.9570   -2.3570 o         1 MOL     -0.600079
     14 O4         -0.6730    1.7390   -2.2250 o         1 MOL     -0.600079
     15 H4          1.8430    4.9050    1.4270 hn        1 MOL      0.259279
     16 H5          0.7170    4.9450   -0.4340 h1        1 MOL      0.113945
     17 H6          0.4220    1.9910    0.1670 hc        1 MOL      0.083282
     18 H7          1.5770    2.8360   -0.7600 hc        1 MOL      0.083282
     19 N2         -1.3560    5.9460    0.7050 n         1 MOL     -0.621652
     20 C7         -2.6940    6.5390    0.9570 c3        1 MOL      0.346983
     21 C8         -3.3430    7.3090   -0.1590 c         1 MOL      0.564682
     22 O5         -2.7220    8.1880   -0.7350 o         1 MOL     -0.609716
     23 C9         -2.7020    7.3950    2.2480 c3        1 MOL      0.061334
     24 C10        -1.9890    6.6940    3.4810 c3        1 MOL      0.112462
     25 C11        -4.1620    7.7160    2.7430 c3        1 MOL     -0.357402
     26 C12        -1.6900    7.5920    4.6220 c3        1 MOL     -0.106920
     27 H8         -0.6090    6.5970    0.5250 hn        1 MOL      0.274995
     28 H9         -3.3220    5.6750    1.1580 h1        1 MOL     -0.046362
     29 H10        -2.0670    8.2280    1.9560 hc        1 MOL     -0.041484
     30 H11        -1.0370    6.2530    3.1790 hc        1 MOL      0.004052
     31 H12        -2.6110    5.9060    3.8820 hc        1 MOL      0.004052
     32 H13        -4.6960    8.1900    1.9180 hc        1 MOL      0.092422
     33 H14        -4.7110    6.8100    3.0150 hc        1 MOL      0.092422
     34 H15        -4.0550    8.3080    3.6450 hc        1 MOL      0.092422
     35 H16        -1.2880    7.0160    5.4480 hc        1 MOL      0.001734
     36 H17        -0.8520    8.2540    4.3810 hc        1 MOL      0.001734
     37 H18        -2.5520    8.1590    4.9560 hc        1 MOL      0.001734
     38 N3         -4.6100    7.0980   -0.5110 n         1 MOL     -0.454521
     39 C13        -5.5490    6.0320   -0.1550 c3        1 MOL      0.027143
     40 C14        -5.1230    4.6590   -0.6300 c         1 MOL      0.617973
     41 O6         -5.4250    3.6430   -0.0240 o         1 MOL     -0.609826
     42 C15        -6.9440    6.2810   -0.8120 c3        1 MOL     -0.159699
     43 C16        -7.2460    7.5400   -1.5250 c         1 MOL      0.684855
     44 O7         -7.4380    7.5110   -2.7690 o         1 MOL     -0.654034
     45 O8         -7.2120    8.5930   -0.8950 o         1 MOL     -0.654034
     46 H19        -4.9640    7.7470   -1.2060 hn        1 MOL      0.309130
     47 H20        -5.6300    5.9100    0.9270 h1        1 MOL      0.040024
     48 H21        -7.7320    6.1170   -0.0750 hc        1 MOL      0.047190
     49 H22        -7.0510    5.4480   -1.5090 hc        1 MOL      0.047190
     50 N4         -4.5030    4.5670   -1.7660 n         1 MOL     -0.477138
     51 C17        -3.9530    3.2910   -2.3540 c3        1 MOL      0.026540
     52 C18        -5.1550    2.3980   -2.7720 c         1 MOL      0.495512
     53 O9         -6.2020    2.9280   -3.1760 o         1 MOL     -0.542974
     54 H23        -4.1690    5.4570   -2.1150 hn        1 MOL      0.287745
     55 H24        -3.4050    2.7600   -1.5820 h1        1 MOL      0.100635
     56 H25        -3.3060    3.4560   -3.2160 h1        1 MOL      0.100635
     57 N5         -5.0670    1.0980   -2.7110 n         1 MOL     -0.415622
     58 C19        -6.0680    0.1470   -3.2340 c3        1 MOL      0.006119
     59 C20        -7.0740   -0.4510   -2.1000 c         1 MOL      0.466919
     60 O10        -8.1830   -0.8250   -2.4760 o         1 MOL     -0.560912
     61 C21        -5.2870   -1.0190   -3.8800 c3        1 MOL      0.008654
     62 C22        -4.2030   -1.6920   -3.0730 c         1 MOL      0.551009
     63 O11        -3.0190   -1.2320   -3.2430 o         1 MOL     -0.593085
     64 O12        -4.5630   -2.4640   -2.1170 o         1 MOL     -0.593085
     65 H26        -4.1540    0.7390   -2.4600 hn        1 MOL      0.292387
     66 H27        -6.7040    0.6760   -3.9450 h1        1 MOL      0.087544
     67 H28        -4.7450   -0.7190   -4.7800 hc        1 MOL     -0.021292
     68 H29        -5.9970   -1.7960   -4.1600 hc        1 MOL     -0.021292
     69 N6         -6.7180   -0.4280   -0.8410 n         1 MOL     -0.118257
     70 C23        -7.6350   -0.9580    0.1800 c3        1 MOL     -0.390920
     71 C24        -7.5620   -2.5040    0.4500 c         1 MOL      0.560692
     72 O13        -8.1900   -2.9880    1.4120 o         1 MOL     -0.593552
     73 H30        -5.8220   -0.0250   -0.6130 hn        1 MOL      0.230099
     74 H31        -8.6380   -0.6920   -0.1300 h1        1 MOL      0.158298
     75 H32        -7.3180   -0.4640    1.1040 h1        1 MOL      0.158298
     76 N7         -6.6740   -3.1740   -0.2760 n         1 MOL     -0.169299
     77 C25        -6.1180   -4.5400   -0.1200 c3        1 MOL     -0.108629
     78 C26        -5.6980   -5.0330    1.2600 c         1 MOL      0.646294
     79 O14        -5.7580   -6.2420    1.4890 o         1 MOL     -0.548339
     80 C27        -6.9940   -5.5280   -0.8920 c3        1 MOL      0.180568
     81 C28        -7.2130   -5.0520   -2.3710 c3        1 MOL     -0.013881
     82 C29        -7.5100   -6.2440   -3.3010 c         1 MOL      0.537910
     83 N8         -8.6860   -6.2980   -3.9730 n         1 MOL     -0.775526
     84 O15        -6.7040   -7.1930   -3.3740 o         1 MOL     -0.549398
     85 H33        -6.2480   -2.6760   -1.0410 hn        1 MOL      0.060454
     86 H34        -5.1540   -4.4890   -0.6280 h1        1 MOL      0.110028
     87 H35        -7.9850   -5.7250   -0.4980 hc        1 MOL     -0.036436
     88 H36        -6.4710   -6.4850   -0.8640 hc        1 MOL     -0.036436
     89 H37        -6.2440   -4.7190   -2.7580 hc        1 MOL      0.020598
     90 H38        -7.9390   -4.2450   -2.4110 hc        1 MOL      0.020598
     91 H39        -9.3930   -5.5770   -3.8970 hn        1 MOL      0.346461
     92 H40        -8.7600   -7.1260   -4.5370 hn        1 MOL      0.346461
     93 N9         -5.2530   -4.0940    2.1190 n         1 MOL     -0.525754
     94 C30        -4.8250   -4.2930    3.5220 c3        1 MOL     -0.060521
     95 C31        -3.3280   -4.0100    3.7110 c         1 MOL      0.589580
     96 O16        -2.7220   -4.5040    4.6670 o         1 MOL     -0.608408
     97 C32        -5.5900   -3.4310    4.5380 c3        1 MOL      0.387973
     98 C33        -5.4030   -1.9620    4.3750 c3        1 MOL     -0.356326
     99 C34        -7.0810   -3.8310    4.6160 c3        1 MOL     -0.356326
    100 H41        -5.0910   -3.1920    1.6970 hn        1 MOL      0.288493
    101 H42        -4.8580   -5.3530    3.7870 h1        1 MOL      0.086989
    102 H43        -5.1480   -3.7700    5.4720 hc        1 MOL     -0.068980
    103 H44        -4.3690   -1.6250    4.4510 hc        1 MOL      0.076780
    104 H45        -5.7170   -1.6680    3.3800 hc        1 MOL      0.076780
    105 H46        -5.9730   -1.4610    5.1560 hc        1 MOL      0.076780
    106 H47        -7.7050   -3.3680    3.8520 hc        1 MOL      0.076780
    107 H48        -7.0960   -4.9180    4.5220 hc        1 MOL      0.076780
    108 H49        -7.4700   -3.6050    5.6150 hc        1 MOL      0.076780
    109 N10        -2.7200   -3.2570    2.8610 n         1 MOL     -0.325527
    110 C35        -1.2470   -3.0560    2.8860 c3        1 MOL     -0.002592
    111 C36        -0.7840   -3.4330    1.4560 c         1 MOL      0.569074
    112 O17        -1.6150   -3.9480    0.6690 o         1 MOL     -0.533777
    113 C37        -0.9900   -1.5770    3.3070 c3        1 MOL     -0.137647
    114 C38         0.4590   -1.2550    3.4820 c         1 MOL      0.705739
    115 N11         0.9070   -0.0100    3.4010 n         1 MOL     -0.803714
    116 O18         1.2300   -2.1160    3.7340 o         1 MOL     -0.558609
    117 H50        -3.1640   -2.8050    2.0750 hn        1 MOL      0.239291
    118 H51        -0.7720   -3.6360    3.6780 h1        1 MOL      0.098081
    119 H52        -1.5860   -1.2500    4.1530 hc        1 MOL      0.064702
    120 H53        -1.3830   -0.9410    2.5100 hc        1 MOL      0.064702
    121 H54         0.3720    0.7380    3.0000 hn        1 MOL      0.341813
    122 H55         1.8600    0.2340    3.6290 hn        1 MOL      0.341813
    123 N12         0.5020   -3.2800    1.0930 n         1 MOL     -0.407175
    124 C39         1.0870   -3.7820   -0.1510 c3        1 MOL      0.011908
    125 C40         2.5750   -4.2110    0.0860 c         1 MOL      0.620834
    126 O19         3.0960   -4.2320    1.1800 o         1 MOL     -0.569096
    127 C41         0.9730   -2.5630   -1.0750 c3        1 MOL     -0.110265
    128 C42         1.8480   -1.3640   -0.8850 ca        1 MOL      0.105643
    129 C43         1.6590   -0.4460    0.1690 ca        1 MOL      0.010095
    130 C44         3.0110   -1.2170   -1.6920 ca        1 MOL      0.010095
    131 C45         2.6490    0.5270    0.4560 ca        1 MOL     -0.462616
    132 C46         3.8910   -0.1350   -1.5300 ca        1 MOL     -0.462616
    133 C47         3.7290    0.7410   -0.4700 ca        1 MOL      0.400821
    134 O20         4.5880    1.7850   -0.2690 oh        1 MOL     -0.347719
    135 H56         1.1710   -2.8830    1.7290 hn        1 MOL      0.202937
    136 H57         0.4970   -4.6440   -0.4800 h1        1 MOL      0.103828
    137 H58        -0.1060   -2.4160   -1.1410 hc        1 MOL      0.050423
    138 H59         1.2540   -2.8770   -2.0870 hc        1 MOL      0.050423
    139 H60         0.8780   -0.7280    0.8460 ha        1 MOL      0.082118
    140 H61         3.2440   -1.9580   -2.4440 ha        1 MOL      0.082118
    141 H62         2.5080    1.2230    1.2730 ha        1 MOL      0.230821
    142 H63         4.6660    0.0330   -2.2620 ha        1 MOL      0.230821
    143 H64         4.3620    2.3330    0.4870 ho        1 MOL      0.234349
    144 N13         3.2850   -4.5610   -1.0030 n         1 MOL     -0.431293
    145 C48         4.6960   -4.8780   -1.0620 c3        1 MOL     -0.037434
    146 C49         5.4340   -3.9540   -2.0300 c         1 MOL      0.758194
    147 O21         5.0620   -3.7730   -3.1670 o         1 MOL     -0.585875
    148 C50         4.8610   -6.3240   -1.6370 c3        1 MOL      0.228871
    149 C51         4.9380   -7.2600   -0.4790 c3        1 MOL     -0.130395
    150 C52         5.2020   -8.7400   -0.7910 c         1 MOL      0.697069
    151 O22         5.9390   -9.3510    0.0380 o         1 MOL     -0.662994
    152 O23         4.6920   -9.2910   -1.7460 o         1 MOL     -0.662994
    153 H65         2.7160   -4.7020   -1.8240 hn        1 MOL      0.270467
    154 H66         5.1430   -4.8790   -0.0670 h1        1 MOL      0.043533
    155 H67         5.8030   -6.3710   -2.1750 hc        1 MOL     -0.068056
    156 H68         4.0000   -6.6100   -2.2470 hc        1 MOL     -0.068056
    157 H69         3.9500   -7.2370   -0.0120 hc        1 MOL      0.021529
    158 H70         5.6850   -6.8710    0.2120 hc        1 MOL      0.021529
    159 N14         6.4120   -3.1530   -1.5540 n         1 MOL     -0.838621
    160 C53         6.3950   -2.6470   -0.2030 c3        1 MOL      0.822813
    161 C54         6.9420   -3.6330    0.8310 c         1 MOL      0.718744
    162 O24         7.6210   -4.5250    0.4260 o         1 MOL     -0.598730
    163 C55         7.0060   -1.2500   -0.2350 c3        1 MOL     -0.398701
    164 C56         8.5040   -1.0150   -0.5630 c3        1 MOL     -1.075475
    165 C57         8.8290    0.5170   -0.5990 c         1 MOL      1.217553
    166 O25         9.3110    1.0980    0.4160 o         1 MOL     -0.790472
    167 O26         8.6560    1.2590   -1.5570 o         1 MOL     -0.790472
    168 H71         6.9150   -2.6420   -2.2760 hn        1 MOL      0.312120
    169 H72         5.3880   -2.4760    0.1730 h1        1 MOL     -0.195199
    170 H73         6.8020   -0.7920    0.7270 hc        1 MOL      0.099181
    171 H74         6.4660   -0.7420   -1.0450 hc        1 MOL      0.099181
    172 H75         8.6810   -1.3660   -1.5810 hc        1 MOL      0.300508
    173 H76         9.0110   -1.5950    0.2090 hc        1 MOL      0.300508
    174 N15         6.6500   -3.4510    2.1370 n         1 MOL     -0.383508
    175 C58         7.0760   -4.2180    3.3340 c3        1 MOL     -0.695482
    176 H77         6.2610   -4.2430    4.0590 h1        1 MOL      0.232603
    177 H78         7.3320   -5.2360    3.0420 h1        1 MOL      0.232603
    178 H79         7.9450   -3.7380    3.7840 h1        1 MOL      0.232603
    179 H80         6.1360   -2.6130    2.3670 hn        1 MOL      0.267575
    180 Ca1         9.7380    3.5880   -0.4450 Ca        1 MOL      1.383449
    181 O27        11.7730    1.8560   -1.5670 oh        1 MOL     -0.661166
    182 H81        11.4640    1.3860   -2.3380 ho        1 MOL      0.292001
    183 H82        12.5970    1.4230   -1.3340 ho        1 MOL      0.292001
    184 O28         8.5560    6.0820   -0.5180 oh        1 MOL     -0.661166
    185 H83         9.0470    6.7510   -0.0550 ho        1 MOL      0.292001
    186 H84         8.4560    6.4230   -1.4080 ho        1 MOL      0.292001
    187 O29         6.9710    3.5300   -1.2800 oh        1 MOL     -0.661166
    188 H85         6.8980    2.6190   -1.5610 ho        1 MOL      0.292001
    189 H86         6.9440    3.4880   -0.3260 ho        1 MOL      0.292001
    190 O30        11.3890    5.6810   -0.7240 oh        1 MOL     -0.661166
    191 H87        12.1890    5.3890   -0.3000 ho        1 MOL      0.292001
    192 H88        11.5820    6.5570   -1.0320 ho        1 MOL      0.292001
    193 O31        11.6790    3.1850    1.2230 oh        1 MOL     -0.661166
    194 H89        12.6120    3.0880    1.0140 ho        1 MOL      0.292001
    195 H90        11.6390    3.0410    2.1720 ho        1 MOL      0.292001
    196 O32        10.3180    4.0960   -2.9680 oh        1 MOL     -0.661166
    197 H91         9.7550    4.3030   -3.7190 ho        1 MOL      0.292001
    198 H92        11.2090    4.1690   -3.3230 ho        1 MOL      0.292001
@<TRIPOS>BOND
     1    1    2 1   
     2    1    4 1   
     3    1    5 1   
     4    1    6 1   
     5    2    3 2   
     6    2    7 1   
     7    7    8 1   
     8    7   15 1   
     9    8    9 1   
    10    8   11 1   
    11    8   16 1   
    12    9   10 2   
    13    9   19 1   
    14   11   12 1   
    15   11   17 1   
    16   11   18 1   
    17   12   13 1   
    18   12   14 1   
    19   19   20 1   
    20   19   27 1   
    21   20   21 1   
    22   20   23 1   
    23   20   28 1   
    24   21   22 2   
    25   21   38 1   
    26   23   24 1   
    27   23   25 1   
    28   23   29 1   
    29   24   26 1   
    30   24   30 1   
    31   24   31 1   
    32   25   32 1   
    33   25   33 1   
    34   25   34 1   
    35   26   35 1   
    36   26   36 1   
    37   26   37 1   
    38   38   39 1   
    39   38   46 1   
    40   39   40 1   
    41   39   42 1   
    42   39   47 1   
    43   40   41 2   
    44   40   50 1   
    45   42   43 1   
    46   42   48 1   
    47   42   49 1   
    48   43   44 1   
    49   43   45 1   
    50   50   51 1   
    51   50   54 1   
    52   51   52 1   
    53   51   55 1   
    54   51   56 1   
    55   52   53 2   
    56   52   57 1   
    57   57   58 1   
    58   57   65 1   
    59   58   59 1   
    60   58   61 1   
    61   58   66 1   
    62   59   60 2   
    63   59   69 1   
    64   61   62 1   
    65   61   67 1   
    66   61   68 1   
    67   62   63 1   
    68   62   64 1   
    69   69   70 1   
    70   69   73 1   
    71   70   71 1   
    72   70   74 1   
    73   70   75 1   
    74   71   72 2   
    75   71   76 1   
    76   76   77 1   
    77   76   85 1   
    78   77   78 1   
    79   77   80 1   
    80   77   86 1   
    81   78   79 2   
    82   78   93 1   
    83   80   81 1   
    84   80   87 1   
    85   80   88 1   
    86   81   82 1   
    87   81   89 1   
    88   81   90 1   
    89   82   83 1   
    90   82   84 2   
    91   83   91 1   
    92   83   92 1   
    93   93   94 1   
    94   93  100 1   
    95   94   95 1   
    96   94   97 1   
    97   94  101 1   
    98   95   96 2   
    99   95  109 1   
   100   97   98 1   
   101   97   99 1   
   102   97  102 1   
   103   98  103 1   
   104   98  104 1   
   105   98  105 1   
   106   99  106 1   
   107   99  107 1   
   108   99  108 1   
   109  109  110 1   
   110  109  117 1   
   111  110  111 1   
   112  110  113 1   
   113  110  118 1   
   114  111  112 2   
   115  111  123 1   
   116  113  114 1   
   117  113  119 1   
   118  113  120 1   
   119  114  115 1   
   120  114  116 2   
   121  115  121 1   
   122  115  122 1   
   123  123  124 1   
   124  123  135 1   
   125  124  125 1   
   126  124  127 1   
   127  124  136 1   
   128  125  126 2   
   129  125  144 1   
   130  127  128 1   
   131  127  137 1   
   132  127  138 1   
   133  128  129 ar  
   134  128  130 ar  
   135  129  131 ar  
   136  129  139 1   
   137  130  132 ar  
   138  130  140 1   
   139  131  133 ar  
   140  131  141 1   
   141  132  133 ar  
   142  132  142 1   
   143  133  134 1   
   144  134  143 1   
   145  144  145 1   
   146  144  153 1   
   147  145  146 1   
   148  145  148 1   
   149  145  154 1   
   150  146  147 2   
   151  146  159 1   
   152  148  149 1   
   153  148  155 1   
   154  148  156 1   
   155  149  150 1   
   156  149  157 1   
   157  149  158 1   
   158  150  151 1   
   159  150  152 1   
   160  159  160 1   
   161  159  168 1   
   162  160  161 1   
   163  160  163 1   
   164  160  169 1   
   165  161  162 2   
   166  161  174 1   
   167  163  164 1   
   168  163  170 1   
   169  163  171 1   
   170  164  165 1   
   171  164  172 1   
   172  164  173 1   
   173  165  166 1   
   174  165  167 1   
   175  174  175 1   
   176  174  179 1   
   177  175  176 1   
   178  175  177 1   
   179  175  178 1   
   180  181  182 1   
   181  181  183 1   
   182  184  185 1   
   183  184  186 1   
   184  187  188 1   
   185  187  189 1   
   186  190  191 1   
   187  190  192 1   
   188  193  194 1   
   189  193  195 1   
   190  196  197 1   
   191  196  198 1   
@<TRIPOS>SUBSTRUCTURE
     1 MOL         1 TEMP              0 ****  ****    0 ROOT
