@<TRIPOS>MOLECULE
MOL
  184   179     1     0     0
SMALL
resp


@<TRIPOS>ATOM
      1 C1          9.0840   -5.7060   -1.8380 c3        1 MOL     -0.342801
      2 C2          8.0280   -4.6170   -2.0650 c         1 MOL      0.635722
      3 O1          7.3610   -4.6180   -3.0990 o         1 MOL     -0.555860
      4 H1          9.6510   -5.8570   -2.7550 hc        1 MOL      0.085661
      5 H2          9.7590   -5.3980   -1.0400 hc        1 MOL      0.085661
      6 H3          8.5910   -6.6370   -1.5590 hc        1 MOL      0.085661
      7 N1          7.8210   -3.6640   -1.1090 n         1 MOL     -0.408634
      8 C3          8.2610   -3.6570    0.2990 c3        1 MOL      0.044688
      9 C4          9.0580   -2.3310    0.6410 c         1 MOL      0.519376
     10 O2          9.7970   -2.2920    1.6010 o         1 MOL     -0.537621
     11 C5          7.0100   -3.8010    1.1770 c3        1 MOL     -0.177806
     12 C6          5.8340   -2.9170    0.7570 c         1 MOL      0.557662
     13 O3          5.8890   -1.6960    1.0060 o         1 MOL     -0.620919
     14 O4          4.9250   -3.3560    0.0580 o         1 MOL     -0.620919
     15 H4          7.3750   -2.8340   -1.4770 hn        1 MOL      0.247590
     16 H5          8.9250   -4.5110    0.4290 h1        1 MOL      0.072318
     17 H6          7.2580   -3.6460    2.2240 hc        1 MOL      0.049171
     18 H7          6.6230   -4.8090    1.0350 hc        1 MOL      0.049171
     19 N2          9.0660   -1.3730   -0.3080 n         1 MOL     -0.519443
     20 C7          9.9030   -0.1610   -0.3420 c3        1 MOL      0.335294
     21 C8          9.1300    1.0980   -0.5540 c         1 MOL      0.440082
     22 O5          9.7450    2.0720   -0.8950 o         1 MOL     -0.553710
     23 C9         11.2040   -0.3820   -1.2730 c3        1 MOL     -0.336028
     24 H8          8.5840   -1.5760   -1.1710 hn        1 MOL      0.271688
     25 H9         10.1930   -0.0120    0.6980 h1        1 MOL      0.021866
     26 H10        11.7240   -1.3070   -1.0440 hc        1 MOL      0.083148
     27 H11        10.8870   -0.4650   -2.3120 hc        1 MOL      0.083148
     28 H12        11.9050    0.4370   -1.1040 hc        1 MOL      0.083148
     29 N3          7.7990    1.1220   -0.4210 n         1 MOL     -0.326479
     30 C10         7.0220    2.3820   -0.5200 c3        1 MOL      0.166110
     31 C11         6.1730    2.6160    0.8210 c         1 MOL      0.468726
     32 O6          5.8450    3.7570    1.1700 o         1 MOL     -0.548626
     33 C12         6.2210    2.4090   -1.7760 c3        1 MOL     -0.268351
     34 C13         5.5040    1.1240   -2.0120 c         1 MOL      0.800175
     35 O7          5.8080    0.4160   -2.9960 o         1 MOL     -0.730943
     36 O8          4.6820    0.6460   -1.1810 o         1 MOL     -0.730943
     37 H13         7.2520    0.3120   -0.1790 hn        1 MOL      0.205990
     38 H14         7.7060    3.2370   -0.4820 h1        1 MOL      0.052634
     39 H15         6.8660    2.6710   -2.6080 hc        1 MOL      0.068417
     40 H16         5.3880    3.0920   -1.6260 hc        1 MOL      0.068417
     41 N4          5.8040    1.5530    1.6230 n         1 MOL     -0.433468
     42 C14         4.9040    1.7420    2.7310 c3        1 MOL      0.050167
     43 C15         3.4710    1.5460    2.2720 c         1 MOL      0.722791
     44 O9          3.1610    0.9570    1.2450 o         1 MOL     -0.602746
     45 H17         5.8980    0.5960    1.3060 hn        1 MOL      0.176583
     46 H18         5.0710    2.7150    3.1860 h1        1 MOL      0.057988
     47 H19         5.1120    1.0900    3.5890 h1        1 MOL      0.057988
     48 N5          2.5750    2.1620    3.0550 n         1 MOL     -0.761992
     49 C16         1.1670    2.2440    2.8530 c3        1 MOL      0.330315
     50 C17         0.6000    3.3770    2.0140 c         1 MOL      0.509090
     51 O10        -0.6010    3.6760    2.2130 o         1 MOL     -0.540439
     52 C18         0.4790    2.1060    4.2140 c3        1 MOL     -0.138756
     53 C19         1.0160    0.9250    5.0400 c         1 MOL      0.528772
     54 N6          0.7600   -0.2360    4.6190 n         1 MOL     -0.516812
     55 O11         1.6830    1.0910    6.0870 o         1 MOL     -0.623090
     56 H20         2.9960    2.8340    3.6840 hn        1 MOL      0.318852
     57 H21         0.8870    1.3290    2.3330 h1        1 MOL      0.018055
     58 H22        -0.6100    1.9960    4.1190 hc        1 MOL      0.040140
     59 H23         0.6390    2.9960    4.8160 hc        1 MOL      0.040140
     60 H24         0.0660   -0.4140    3.9020 hn        1 MOL      0.288436
     61 H25         1.1000   -0.9760    5.2050 hn        1 MOL      0.288436
     62 N7          1.4700    3.9940    1.1980 n         1 MOL     -0.571001
     63 C20         1.1010    5.1460    0.3150 c3        1 MOL      0.231315
     64 C21         1.0630    4.8440   -1.2390 c         1 MOL      0.398695
     65 O12         1.9060    4.0770   -1.6610 o         1 MOL     -0.472296
     66 H26         2.4190    3.6960    1.0410 hn        1 MOL      0.385256
     67 H27         1.8450    5.9270    0.4170 h1        1 MOL      0.012172
     68 H28         0.2000    5.6290    0.6780 h1        1 MOL      0.012172
     69 N8          0.0750    5.4260   -1.9210 n         1 MOL     -0.338842
     70 C22        -1.0140    6.2600   -1.4190 c3        1 MOL     -0.090519
     71 C23        -2.0110    5.3970   -0.5410 c         1 MOL      0.251137
     72 O13        -2.4830    5.9320    0.4590 o         1 MOL     -0.524865
     73 C24        -1.8700    6.8150   -2.6400 c3        1 MOL      0.322100
     74 C25        -1.0880    7.7320   -3.5960 c3        1 MOL     -0.426828
     75 O14        -2.1510    5.7320   -3.4460 oh        1 MOL     -0.593709
     76 H29         0.2260    5.4030   -2.9200 hn        1 MOL      0.282366
     77 H30        -0.6810    7.1230   -0.8450 h1        1 MOL      0.081963
     78 H31        -2.8280    7.2350   -2.3650 h1        1 MOL      0.021581
     79 H32        -3.0120    5.9650   -3.8090 ho        1 MOL      0.397289
     80 H33        -0.0790    7.3830   -3.7910 hc        1 MOL      0.106746
     81 H34        -1.7480    7.8110   -4.4630 hc        1 MOL      0.106746
     82 H35        -0.9560    8.7150   -3.1460 hc        1 MOL      0.106746
     83 N9         -2.2320    4.1200   -0.9320 n         1 MOL      0.181479
     84 C26        -2.9780    3.0770   -0.1080 c3        1 MOL     -0.040239
     85 C27        -2.0920    1.7510    0.1370 c         1 MOL      0.286498
     86 O15        -1.0290    1.6240   -0.5040 o         1 MOL     -0.483822
     87 C28        -4.2590    2.7460   -0.8610 c3        1 MOL      0.079356
     88 C29        -3.8600    2.2640   -2.2670 c3        1 MOL      0.206498
     89 C30        -5.2080    3.9890   -0.8590 c3        1 MOL     -0.304805
     90 C31        -5.0820    1.5270   -2.8080 c3        1 MOL     -0.152295
     91 H36        -1.6720    3.7480   -1.6900 hn        1 MOL      0.107795
     92 H37        -3.1650    3.4680    0.8900 h1        1 MOL      0.089881
     93 H38        -4.7420    1.9580   -0.2970 hc        1 MOL      0.039606
     94 H39        -3.1520    1.4400   -2.3700 hc        1 MOL     -0.031728
     95 H40        -3.6000    3.0770   -2.9370 hc        1 MOL     -0.031728
     96 H41        -5.2610    4.4080    0.1460 hc        1 MOL      0.055980
     97 H42        -4.8660    4.7870   -1.5020 hc        1 MOL      0.055980
     98 H43        -6.2430    3.7430   -1.0990 hc        1 MOL      0.055980
     99 H44        -4.9410    1.3230   -3.8690 hc        1 MOL     -0.004929
    100 H45        -5.2030    0.6150   -2.2280 hc        1 MOL     -0.004929
    101 H46        -5.9570    2.1690   -2.7100 hc        1 MOL     -0.004929
    102 N10        -2.3270    0.8450    1.0720 n         1 MOL     -0.199625
    103 C32        -3.4920    0.6050    1.9290 c3        1 MOL      0.058378
    104 C33        -4.5940   -0.2720    1.2930 c         1 MOL      0.555073
    105 O16        -4.3310   -0.9850    0.2860 o         1 MOL     -0.530323
    106 C34        -2.9420   -0.0570    3.2070 c3        1 MOL      0.018106
    107 C35        -2.1210   -1.3100    3.0440 c         1 MOL      0.518001
    108 O17        -2.6180   -2.3960    3.3910 o         1 MOL     -0.604345
    109 O18        -1.0300   -1.2870    2.5540 o         1 MOL     -0.604345
    110 H47        -1.5910    0.1520    1.1720 hn        1 MOL      0.208330
    111 H48        -4.0340    1.5380    2.1310 h1        1 MOL     -0.011906
    112 H49        -3.7290   -0.3180    3.9200 hc        1 MOL     -0.026237
    113 H50        -2.3180    0.6720    3.7180 hc        1 MOL     -0.026237
    114 N11        -5.8260   -0.2330    1.8450 n         1 MOL     -0.419279
    115 C36        -7.1030   -0.8040    1.2440 c3        1 MOL      0.572628
    116 C37        -7.6960    0.1840    0.2130 c         1 MOL      0.137656
    117 O19        -7.6660    1.3790    0.5490 o         1 MOL     -0.497555
    118 C38        -8.0890   -1.2360    2.4060 c3        1 MOL     -0.115032
    119 C39        -7.3350   -1.9330    3.5890 ca        1 MOL     -0.136206
    120 C40        -6.9670   -3.3550    3.4700 ca        1 MOL     -0.038918
    121 C41        -6.8680   -1.1870    4.6740 ca        1 MOL     -0.038918
    122 C42        -6.1210   -3.8330    4.4460 ca        1 MOL     -0.180050
    123 C43        -6.0480   -1.7660    5.6890 ca        1 MOL     -0.180050
    124 C44        -5.5650   -3.0950    5.5460 ca        1 MOL     -0.067816
    125 H51        -5.9790    0.3690    2.6350 hn        1 MOL      0.205697
    126 H52        -6.9010   -1.7490    0.7360 h1        1 MOL     -0.037134
    127 H53        -8.8650   -1.8460    1.9360 hc        1 MOL      0.028283
    128 H54        -8.4710   -0.2630    2.7200 hc        1 MOL      0.028283
    129 H55        -7.3830   -4.0000    2.7180 ha        1 MOL      0.102459
    130 H56        -7.2430   -0.1770    4.7830 ha        1 MOL      0.102459
    131 H57        -5.7980   -4.8660    4.4280 ha        1 MOL      0.115223
    132 H58        -5.8630   -1.2280    6.6080 ha        1 MOL      0.115223
    133 H59        -4.8680   -3.4650    6.2780 ha        1 MOL      0.125628
    134 N12        -8.0970   -0.1610   -1.0640 n         1 MOL     -0.021795
    135 C45        -8.4340   -1.5210   -1.3910 c3        1 MOL      0.041064
    136 C46        -7.2850   -2.5020   -1.5500 c         1 MOL      0.326386
    137 O20        -7.2500   -3.5170   -0.8700 o         1 MOL     -0.509349
    138 C47        -9.5210   -1.4850   -2.5490 c3        1 MOL      0.204455
    139 C48        -9.8390    0.0060   -2.6140 c3        1 MOL     -0.235356
    140 C49        -8.7080    0.7930   -1.9990 c3        1 MOL      0.095074
    141 H60        -8.9300   -1.8880   -0.4980 h1        1 MOL     -0.011360
    142 H61        -9.1760   -1.8690   -3.5130 hc        1 MOL     -0.017694
    143 H62       -10.4030   -2.0970   -2.3410 hc        1 MOL     -0.017694
    144 H63       -10.0500    0.3120   -3.6380 hc        1 MOL      0.043839
    145 H64       -10.7790    0.1900   -2.0980 hc        1 MOL      0.043839
    146 H65        -7.9680    1.1090   -2.7270 h1        1 MOL      0.045051
    147 H66        -8.9300    1.7830   -1.6010 h1        1 MOL      0.045051
    148 N13        -6.3170   -2.2860   -2.4450 n         1 MOL     -0.366520
    149 C50        -5.1180   -3.1250   -2.6300 c3        1 MOL      0.249834
    150 C51        -5.4200   -4.3150   -3.5700 c         1 MOL      0.492948
    151 O21        -6.0350   -4.0580   -4.6040 o         1 MOL     -0.601493
    152 C52        -4.0030   -2.1460   -3.0460 c3        1 MOL     -0.167779
    153 C53        -2.6800   -2.8850   -2.7990 c3        1 MOL     -0.055728
    154 C54        -1.5930   -1.9110   -2.6830 c         1 MOL      0.727051
    155 O22        -0.7780   -2.0470   -1.6570 o         1 MOL     -0.686391
    156 O23        -1.2800   -1.1590   -3.6430 o         1 MOL     -0.686391
    157 H67        -6.4260   -1.5010   -3.0620 hn        1 MOL      0.221103
    158 H68        -4.8530   -3.5990   -1.6780 h1        1 MOL      0.091112
    159 H69        -4.0360   -1.2410   -2.4420 hc        1 MOL      0.077740
    160 H70        -4.0310   -1.8830   -4.1090 hc        1 MOL      0.077740
    161 H71        -2.4460   -3.6020   -3.5880 hc        1 MOL     -0.017794
    162 H72        -2.7060   -3.4720   -1.8750 hc        1 MOL     -0.017794
    163 N14        -5.0540   -5.5750   -3.3810 n         1 MOL     -0.420300
    164 C55        -4.5260   -6.2410   -2.1000 c3        1 MOL     -0.069808
    165 H73        -3.4960   -6.5610   -2.2550 h1        1 MOL      0.073894
    166 H74        -4.5640   -5.5270   -1.2760 h1        1 MOL      0.073894
    167 H75        -5.1430   -7.1070   -1.8590 h1        1 MOL      0.073894
    168 H76        -5.3980   -6.1490   -4.1390 hn        1 MOL      0.284396
    169 Ca1         3.2810   -1.2760   -0.1560 Ca        1 MOL      1.747658
    170 O24         4.4590   -1.8850   -2.5710 oh        1 MOL     -0.827151
    171 H77         4.8220   -2.3360   -3.3320 ho        1 MOL      0.391476
    172 H78         4.8520   -1.0100   -2.6060 ho        1 MOL      0.391476
    173 O25         2.0700   -3.7810   -0.2420 oh        1 MOL     -0.827151
    174 H79         2.4310   -4.4070    0.3860 ho        1 MOL      0.391476
    175 H80         1.1240   -3.8350   -0.1200 ho        1 MOL      0.391476
    176 O26         2.7330   -2.2750    2.2370 oh        1 MOL     -0.827151
    177 H81         2.0160   -2.9030    2.3660 ho        1 MOL      0.391476
    178 H82         3.3560   -2.4690    2.9220 ho        1 MOL      0.391476
    179 O27         1.6960   -1.1910   -2.2770 oh        1 MOL     -0.827151
    180 H83         0.8920   -1.7060   -2.3210 ho        1 MOL      0.391476
    181 H84         1.8430   -0.8940   -3.1790 ho        1 MOL      0.391476
    182 O28         0.7210   -1.2170    0.4680 oh        1 MOL     -0.827151
    183 H85         0.0500   -1.4220   -0.1810 ho        1 MOL      0.391476
    184 H86         0.2610   -1.2710    1.3090 ho        1 MOL      0.391476
@<TRIPOS>BOND
     1    1    2 1   
     2    1    4 1   
     3    1    5 1   
     4    1    6 1   
     5    2    3 2   
     6    2    7 1   
     7    7    8 1   
     8    7   15 1   
     9    8    9 1   
    10    8   11 1   
    11    8   16 1   
    12    9   10 2   
    13    9   19 1   
    14   11   12 1   
    15   11   17 1   
    16   11   18 1   
    17   12   13 1   
    18   12   14 1   
    19   19   20 1   
    20   19   24 1   
    21   20   21 1   
    22   20   23 1   
    23   20   25 1   
    24   21   22 2   
    25   21   29 1   
    26   23   26 1   
    27   23   27 1   
    28   23   28 1   
    29   29   30 1   
    30   29   37 1   
    31   30   31 1   
    32   30   33 1   
    33   30   38 1   
    34   31   32 2   
    35   31   41 1   
    36   33   34 1   
    37   33   39 1   
    38   33   40 1   
    39   34   35 1   
    40   34   36 1   
    41   41   42 1   
    42   41   45 1   
    43   42   43 1   
    44   42   46 1   
    45   42   47 1   
    46   43   44 2   
    47   43   48 1   
    48   48   49 1   
    49   48   56 1   
    50   49   50 1   
    51   49   52 1   
    52   49   57 1   
    53   50   51 2   
    54   50   62 1   
    55   52   53 1   
    56   52   58 1   
    57   52   59 1   
    58   53   54 1   
    59   53   55 2   
    60   54   60 1   
    61   54   61 1   
    62   62   63 1   
    63   62   66 1   
    64   63   64 1   
    65   63   67 1   
    66   63   68 1   
    67   64   65 2   
    68   64   69 1   
    69   69   70 1   
    70   69   76 1   
    71   70   71 1   
    72   70   73 1   
    73   70   77 1   
    74   71   72 2   
    75   71   83 1   
    76   73   74 1   
    77   73   75 1   
    78   73   78 1   
    79   74   80 1   
    80   74   81 1   
    81   74   82 1   
    82   75   79 1   
    83   83   84 1   
    84   83   91 1   
    85   84   85 1   
    86   84   87 1   
    87   84   92 1   
    88   85   86 2   
    89   85  102 1   
    90   87   88 1   
    91   87   89 1   
    92   87   93 1   
    93   88   90 1   
    94   88   94 1   
    95   88   95 1   
    96   89   96 1   
    97   89   97 1   
    98   89   98 1   
    99   90   99 1   
   100   90  100 1   
   101   90  101 1   
   102  102  103 1   
   103  102  110 1   
   104  103  104 1   
   105  103  106 1   
   106  103  111 1   
   107  104  105 2   
   108  104  114 1   
   109  106  107 1   
   110  106  112 1   
   111  106  113 1   
   112  107  108 1   
   113  107  109 1   
   114  114  115 1   
   115  114  125 1   
   116  115  116 1   
   117  115  118 1   
   118  115  126 1   
   119  116  117 2   
   120  116  134 1   
   121  118  119 1   
   122  118  127 1   
   123  118  128 1   
   124  119  120 ar  
   125  119  121 ar  
   126  120  122 ar  
   127  120  129 1   
   128  121  123 ar  
   129  121  130 1   
   130  122  124 ar  
   131  122  131 1   
   132  123  124 ar  
   133  123  132 1   
   134  124  133 1   
   135  134  135 1   
   136  134  140 1   
   137  135  136 1   
   138  135  138 1   
   139  135  141 1   
   140  136  137 2   
   141  136  148 1   
   142  138  139 1   
   143  138  142 1   
   144  138  143 1   
   145  139  140 1   
   146  139  144 1   
   147  139  145 1   
   148  140  146 1   
   149  140  147 1   
   150  148  149 1   
   151  148  157 1   
   152  149  150 1   
   153  149  152 1   
   154  149  158 1   
   155  150  151 2   
   156  150  163 1   
   157  152  153 1   
   158  152  159 1   
   159  152  160 1   
   160  153  154 1   
   161  153  161 1   
   162  153  162 1   
   163  154  155 1   
   164  154  156 1   
   165  163  164 1   
   166  163  168 1   
   167  164  165 1   
   168  164  166 1   
   169  164  167 1   
   170  170  171 1   
   171  170  172 1   
   172  173  174 1   
   173  173  175 1   
   174  176  177 1   
   175  176  178 1   
   176  179  180 1   
   177  179  181 1   
   178  182  183 1   
   179  182  184 1   
@<TRIPOS>SUBSTRUCTURE
     1 MOL         1 TEMP              0 ****  ****    0 ROOT
