@<TRIPOS>MOLECULE
MOL
  185   180     1     0     0
SMALL
resp


@<TRIPOS>ATOM
      1 C1         -4.2220    3.0860   -2.6040 c3        1 MOL     -0.396063
      2 C2         -5.4800    2.8750   -1.6800 c         1 MOL      0.579864
      3 O1         -5.3450    2.7170   -0.4760 o         1 MOL     -0.494045
      4 H1         -4.5300    3.0590   -3.6490 hc        1 MOL      0.100207
      5 H2         -3.7670    4.0530   -2.3850 hc        1 MOL      0.100207
      6 H3         -3.4970    2.2930   -2.4190 hc        1 MOL      0.100207
      7 N1         -6.6920    2.9910   -2.2790 n         1 MOL     -0.512721
      8 C3         -7.9840    2.8730   -1.5710 c3        1 MOL      0.183424
      9 C4         -8.4210    1.5730   -0.8940 c         1 MOL      0.316627
     10 O2         -9.0060    1.5700    0.2120 o         1 MOL     -0.420177
     11 C5         -8.1180    4.1240   -0.6260 c3        1 MOL     -0.292947
     12 C6         -9.6180    4.4950   -0.3270 c         1 MOL      0.650806
     13 O3        -10.5210    4.2050   -1.1310 o         1 MOL     -0.646012
     14 O4         -9.8470    5.1620    0.7520 o         1 MOL     -0.646012
     15 H4         -6.7440    3.2000   -3.2660 hn        1 MOL      0.300711
     16 H5         -8.7820    2.8980   -2.3080 h1        1 MOL      0.011741
     17 H6         -7.6280    4.9520   -1.1270 hc        1 MOL      0.100124
     18 H7         -7.5510    4.0360    0.3100 hc        1 MOL      0.100124
     19 N2         -8.0690    0.4300   -1.5330 n         1 MOL     -0.161367
     20 C7         -8.4640   -0.9920   -1.1750 c3        1 MOL      0.073314
     21 C8         -7.4130   -1.7800   -0.4900 c         1 MOL      0.603359
     22 O5         -7.7160   -2.7430    0.1680 o         1 MOL     -0.557741
     23 C9         -8.8660   -1.7870   -2.4610 c3        1 MOL      0.046135
     24 C10        -9.9190   -1.1050   -3.3080 c3        1 MOL     -0.023803
     25 C11       -11.2570   -1.2480   -2.7500 c3        1 MOL      0.006072
     26 C12       -11.7690   -2.7190   -2.6670 c3        1 MOL      0.029581
     27 N3        -13.2330   -2.6770   -2.4180 n4        1 MOL     -0.318451
     28 H8         -7.4250    0.5090   -2.3040 hn        1 MOL      0.135732
     29 H9         -9.2760   -0.9160   -0.4470 h1        1 MOL      0.047126
     30 H10        -9.1270   -2.8060   -2.1940 hc        1 MOL     -0.008564
     31 H11        -7.9930   -1.8020   -3.1150 hc        1 MOL     -0.008564
     32 H12       -10.0040   -1.6530   -4.2470 hc        1 MOL     -0.000556
     33 H13        -9.7000   -0.0410   -3.4090 hc        1 MOL     -0.000556
     34 H14       -11.8560   -0.6060   -3.3910 hc        1 MOL      0.036395
     35 H15       -11.2950   -0.8030   -1.7620 hc        1 MOL      0.036395
     36 H16       -11.2010   -3.2770   -1.9220 hx        1 MOL      0.081782
     37 H17       -11.6150   -3.1700   -3.6430 hx        1 MOL      0.081782
     38 H18       -13.7300   -2.1140   -3.0880 hn        1 MOL      0.273083
     39 H19       -13.5830   -3.6150   -2.4820 hn        1 MOL      0.273083
     40 H20       -13.4460   -2.2950   -1.5010 hn        1 MOL      0.273083
     41 N4         -6.1660   -1.3430   -0.7730 n         1 MOL     -0.570447
     42 C13        -4.9100   -1.8780   -0.1800 c3        1 MOL     -0.004212
     43 C14        -5.0150   -1.8750    1.3640 c         1 MOL      0.628314
     44 O6         -5.3860   -0.7990    1.9250 o         1 MOL     -0.517333
     45 C15        -3.7170   -1.0670   -0.7580 c3        1 MOL     -0.065400
     46 C16        -2.5280   -1.6970   -0.1830 c         1 MOL      0.597439
     47 O7         -2.0420   -1.1240    0.8420 o         1 MOL     -0.717290
     48 O8         -2.0630   -2.7820   -0.6340 o         1 MOL     -0.717290
     49 H21        -6.0750   -0.4380   -1.2190 hn        1 MOL      0.284973
     50 H22        -4.6870   -2.9210   -0.3750 h1        1 MOL      0.067259
     51 H23        -3.8190   -0.0110   -0.5270 hc        1 MOL      0.056984
     52 H24        -3.7440   -1.2410   -1.8350 hc        1 MOL      0.056984
     53 N5         -4.6050   -2.9720    2.0390 n         1 MOL     -0.433880
     54 C17        -4.7020   -3.1530    3.5300 c3        1 MOL     -0.072444
     55 C18        -4.0610   -2.0480    4.4350 c         1 MOL      0.562104
     56 O9         -4.5200   -1.9590    5.5570 o         1 MOL     -0.554428
     57 H25        -4.3780   -3.7760    1.4720 hn        1 MOL      0.299493
     58 H26        -4.2070   -4.0870    3.7640 h1        1 MOL      0.075627
     59 H27        -5.7570   -3.2030    3.8140 h1        1 MOL      0.075627
     60 N6         -3.0240   -1.3510    4.0000 n         1 MOL     -0.306225
     61 C19        -2.3560   -0.3130    4.7580 c3        1 MOL      0.015445
     62 C20        -1.9870    0.9770    4.0420 c         1 MOL      0.498400
     63 O10        -1.5520    1.9200    4.7360 o         1 MOL     -0.545527
     64 C21        -1.1540   -1.0290    5.3850 c3        1 MOL     -0.238895
     65 C22         0.0080   -1.2250    4.4160 c         1 MOL      0.538640
     66 N7          1.2380   -1.2990    4.8740 n         1 MOL     -0.711335
     67 O11        -0.1690   -1.3200    3.2180 o         1 MOL     -0.430705
     68 H28        -2.5290   -1.6100    3.1590 hn        1 MOL      0.201301
     69 H29        -3.0210   -0.0380    5.5820 h1        1 MOL      0.123855
     70 H30        -1.4700   -1.9500    5.8800 hc        1 MOL      0.089308
     71 H31        -0.8070   -0.3830    6.1900 hc        1 MOL      0.089308
     72 H32         1.2920   -1.4130    5.8720 hn        1 MOL      0.346107
     73 H33         1.9130   -1.6440    4.2030 hn        1 MOL      0.346107
     74 N8         -2.2610    1.1170    2.7040 n         1 MOL     -0.344836
     75 C23        -1.9720    2.2060    1.9370 c3        1 MOL      0.072620
     76 C24        -0.5140    2.2220    1.4400 c         1 MOL      0.565319
     77 O12         0.3010    1.3240    1.5960 o         1 MOL     -0.527328
     78 H34        -2.5560    0.2820    2.2190 hn        1 MOL      0.219849
     79 H35        -2.2130    3.1810    2.3580 h1        1 MOL      0.065395
     80 H36        -2.6660    2.2590    1.1010 h1        1 MOL      0.065395
     81 N9         -0.3030    3.2840    0.6620 n         1 MOL     -0.638547
     82 C25         1.0660    3.7800    0.2930 c3        1 MOL      0.279281
     83 C26         1.9210    2.7450   -0.4960 c         1 MOL      0.421128
     84 O13         1.3760    1.9290   -1.2930 o         1 MOL     -0.509305
     85 C27         0.9660    5.1910   -0.3840 c3        1 MOL     -0.198891
     86 C28         2.2930    5.9330   -0.5470 ca        1 MOL     -0.073188
     87 C29         3.1790    5.9010    0.5800 ca        1 MOL     -0.052883
     88 C30         2.7420    6.3030   -1.8220 ca        1 MOL     -0.052883
     89 C31         4.4570    6.4470    0.4080 ca        1 MOL     -0.295980
     90 C32         4.0320    6.8860   -1.9830 ca        1 MOL     -0.295980
     91 C33         4.8900    6.9340   -0.8610 ca        1 MOL      0.346095
     92 O14         6.1920    7.3580   -0.9420 oh        1 MOL     -0.482918
     93 H37        -1.0750    3.9270    0.6340 hn        1 MOL      0.306371
     94 H38         1.5580    3.8830    1.2580 h1        1 MOL      0.047982
     95 H39         0.3760    5.7670    0.3330 hc        1 MOL      0.112329
     96 H40         0.3730    5.1710   -1.2990 hc        1 MOL      0.112329
     97 H41         2.8220    5.5110    1.5200 ha        1 MOL      0.120824
     98 H42         2.0970    6.2490   -2.6840 ha        1 MOL      0.120824
     99 H43         5.1620    6.5540    1.2270 ha        1 MOL      0.157592
    100 H44         4.3830    7.1330   -2.9780 ha        1 MOL      0.157592
    101 H45         6.2100    7.7720   -1.8150 ho        1 MOL      0.368093
    102 N10         3.2610    2.8400   -0.4080 n         1 MOL     -0.494330
    103 C34         4.1880    1.8140   -1.0280 c3        1 MOL      0.337565
    104 C35         5.2010    1.3040    0.0390 c         1 MOL      0.227743
    105 O15         5.4100    0.0830    0.1640 o         1 MOL     -0.413591
    106 C36         4.9130    2.3180   -2.2790 c3        1 MOL      0.195553
    107 C37         3.7900    2.8560   -3.1890 c3        1 MOL     -0.197676
    108 C38         5.6580    1.1560   -2.9150 c3        1 MOL     -0.262089
    109 C39         4.3140    3.3830   -4.5820 c3        1 MOL     -0.064975
    110 H46         3.6940    3.5750    0.1280 hn        1 MOL      0.185152
    111 H47         3.5900    0.9560   -1.3510 h1        1 MOL      0.005974
    112 H48         5.5620    3.1350   -1.9810 hc        1 MOL     -0.061333
    113 H49         3.4430    3.7290   -2.6420 hc        1 MOL      0.083985
    114 H50         2.9610    2.1770   -3.3450 hc        1 MOL      0.083985
    115 H51         4.9190    0.3520   -2.9360 hc        1 MOL      0.060958
    116 H52         6.1390    1.4000   -3.8580 hc        1 MOL      0.060958
    117 H53         6.4120    0.7470   -2.2470 hc        1 MOL      0.060958
    118 H54         4.5870    2.5830   -5.2680 hc        1 MOL      0.023761
    119 H55         3.6250    4.0990   -5.0390 hc        1 MOL      0.023761
    120 H56         5.2410    3.9060   -4.3630 hc        1 MOL      0.023761
    121 N11         5.9220    2.1780    0.7980 n         1 MOL     -0.151037
    122 C40         6.7990    1.8260    1.9160 c3        1 MOL     -0.164559
    123 C41         8.0010    0.9210    1.6320 c         1 MOL      0.245331
    124 O16         8.4540    0.1460    2.4830 o         1 MOL     -0.440852
    125 C42         7.3920    3.0840    2.5660 c3        1 MOL      0.355122
    126 O17         6.4500    4.1430    2.6020 oh        1 MOL     -0.644934
    127 H57         5.8720    3.1370    0.5080 hn        1 MOL      0.245152
    128 H58         6.1860    1.3440    2.6790 h1        1 MOL      0.160568
    129 H59         8.1780    3.4800    1.9290 h1        1 MOL     -0.008536
    130 H60         7.8790    2.9890    3.5410 h1        1 MOL     -0.008536
    131 H61         6.8720    4.9800    2.7970 ho        1 MOL      0.420616
    132 N12         8.4100    0.8090    0.3740 n         1 MOL     -0.105106
    133 C43         9.2640   -0.2760   -0.2420 c3        1 MOL      0.212727
    134 C44         8.7120   -1.6810    0.0440 c         1 MOL      0.362564
    135 O18         9.4310   -2.5260    0.5920 o         1 MOL     -0.493117
    136 C45        10.7170    0.0310    0.1090 c3        1 MOL     -0.279611
    137 H62         7.9460    1.3660   -0.3320 hn        1 MOL      0.103406
    138 H63         9.1850   -0.1020   -1.3090 h1        1 MOL      0.023478
    139 H64        10.8010    1.1140    0.0710 hc        1 MOL      0.080463
    140 H65        10.8640   -0.3710    1.1070 hc        1 MOL      0.080463
    141 H66        11.4820   -0.4300   -0.5290 hc        1 MOL      0.080463
    142 N13         7.4530   -1.9420   -0.2610 n         1 MOL     -0.250213
    143 C46         6.7760   -3.1840   -0.1020 c3        1 MOL      0.266240
    144 C47         5.7290   -3.3850   -1.1550 c         1 MOL      0.435702
    145 O19         5.1510   -2.4520   -1.6190 o         1 MOL     -0.352075
    146 C48         6.1350   -3.1750    1.2660 c3        1 MOL     -0.341729
    147 H67         6.9070   -1.2760   -0.7800 hn        1 MOL      0.065331
    148 H68         7.4460   -4.0300   -0.2620 h1        1 MOL      0.002616
    149 H69         6.7520   -2.7430    2.0500 hc        1 MOL      0.095514
    150 H70         5.1290   -2.7370    1.2090 hc        1 MOL      0.095514
    151 H71         5.9300   -4.2140    1.5310 hc        1 MOL      0.095514
    152 N14         5.4730   -4.6390   -1.5460 n         1 MOL     -0.589369
    153 C49         4.5430   -5.1010   -2.5620 c3        1 MOL      0.064998
    154 C50         4.8290   -4.5390   -3.9870 c         1 MOL      0.484552
    155 O20         3.9250   -4.4270   -4.7830 o         1 MOL     -0.503184
    156 C51         3.0800   -4.9080   -2.1860 c3        1 MOL      0.082275
    157 C52         2.8890   -5.4070   -0.7520 c3        1 MOL     -0.058531
    158 C53         1.4000   -5.5550   -0.4400 c         1 MOL      0.604942
    159 O21         0.9270   -6.6920   -0.3190 o         1 MOL     -0.666148
    160 O22         0.7460   -4.5490   -0.0920 o         1 MOL     -0.666148
    161 H72         5.8350   -5.4080   -0.9980 hn        1 MOL      0.344053
    162 H73         4.6790   -6.1470   -2.8140 h1        1 MOL      0.082053
    163 H74         2.4990   -5.5840   -2.8210 hc        1 MOL     -0.006279
    164 H75         2.8160   -3.8670   -2.3490 hc        1 MOL     -0.006279
    165 H76         3.3340   -4.6550   -0.0960 hc        1 MOL     -0.032577
    166 H77         3.3700   -6.3780   -0.6750 hc        1 MOL     -0.032577
    167 N15         6.0540   -4.2620   -4.3580 n         1 MOL     -0.349779
    168 C54         6.4150   -3.4580   -5.4700 c3        1 MOL     -0.160007
    169 H78         5.6230   -3.4970   -6.2190 h1        1 MOL      0.098031
    170 H79         6.5560   -2.4280   -5.1430 h1        1 MOL      0.098031
    171 H80         7.3430   -3.8320   -5.9040 h1        1 MOL      0.098031
    172 H81         6.7630   -4.5270   -3.6980 hn        1 MOL      0.240929
    173 Ca1         0.3490   -2.1210    0.7160 Ca        1 MOL      1.769567
    174 O23         1.8690   -3.2920    2.6700 oh        1 MOL     -0.920141
    175 H82         1.5810   -3.9170    3.3380 ho        1 MOL      0.441232
    176 H83         2.6660   -3.6690    2.3030 ho        1 MOL      0.441232
    177 O24         0.1350   -0.5130   -1.2680 oh        1 MOL     -0.920141
    178 H84         0.6800    0.2730   -1.1980 ho        1 MOL      0.441232
    179 H85        -0.1950   -0.5010   -2.1720 ho        1 MOL      0.441232
    180 O25         3.0770   -1.7720   -0.1040 oh        1 MOL     -0.920141
    181 H86         3.6820   -1.2170    0.3890 ho        1 MOL      0.441232
    182 H87         3.6220   -2.2160   -0.7490 ho        1 MOL      0.441232
    183 O26        -1.6980   -3.7970    2.2460 oh        1 MOL     -0.920141
    184 H88        -1.8920   -4.4850    1.6130 ho        1 MOL      0.441232
    185 H89        -1.9160   -4.1800    3.0950 ho        1 MOL      0.441232
@<TRIPOS>BOND
     1    1    2 1   
     2    1    4 1   
     3    1    5 1   
     4    1    6 1   
     5    2    3 2   
     6    2    7 1   
     7    7    8 1   
     8    7   15 1   
     9    8    9 1   
    10    8   11 1   
    11    8   16 1   
    12    9   10 2   
    13    9   19 1   
    14   11   12 1   
    15   11   17 1   
    16   11   18 1   
    17   12   13 1   
    18   12   14 1   
    19   19   20 1   
    20   19   28 1   
    21   20   21 1   
    22   20   23 1   
    23   20   29 1   
    24   21   22 2   
    25   21   41 1   
    26   23   24 1   
    27   23   30 1   
    28   23   31 1   
    29   24   25 1   
    30   24   32 1   
    31   24   33 1   
    32   25   26 1   
    33   25   34 1   
    34   25   35 1   
    35   26   27 1   
    36   26   36 1   
    37   26   37 1   
    38   27   38 1   
    39   27   39 1   
    40   27   40 1   
    41   41   42 1   
    42   41   49 1   
    43   42   43 1   
    44   42   45 1   
    45   42   50 1   
    46   43   44 2   
    47   43   53 1   
    48   45   46 1   
    49   45   51 1   
    50   45   52 1   
    51   46   47 1   
    52   46   48 1   
    53   53   54 1   
    54   53   57 1   
    55   54   55 1   
    56   54   58 1   
    57   54   59 1   
    58   55   56 2   
    59   55   60 1   
    60   60   61 1   
    61   60   68 1   
    62   61   62 1   
    63   61   64 1   
    64   61   69 1   
    65   62   63 2   
    66   62   74 1   
    67   64   65 1   
    68   64   70 1   
    69   64   71 1   
    70   65   66 1   
    71   65   67 2   
    72   66   72 1   
    73   66   73 1   
    74   74   75 1   
    75   74   78 1   
    76   75   76 1   
    77   75   79 1   
    78   75   80 1   
    79   76   77 2   
    80   76   81 1   
    81   81   82 1   
    82   81   93 1   
    83   82   83 1   
    84   82   85 1   
    85   82   94 1   
    86   83   84 2   
    87   83  102 1   
    88   85   86 1   
    89   85   95 1   
    90   85   96 1   
    91   86   87 ar  
    92   86   88 ar  
    93   87   89 ar  
    94   87   97 1   
    95   88   90 ar  
    96   88   98 1   
    97   89   91 ar  
    98   89   99 1   
    99   90   91 ar  
   100   90  100 1   
   101   91   92 1   
   102   92  101 1   
   103  102  103 1   
   104  102  110 1   
   105  103  104 1   
   106  103  106 1   
   107  103  111 1   
   108  104  105 2   
   109  104  121 1   
   110  106  107 1   
   111  106  108 1   
   112  106  112 1   
   113  107  109 1   
   114  107  113 1   
   115  107  114 1   
   116  108  115 1   
   117  108  116 1   
   118  108  117 1   
   119  109  118 1   
   120  109  119 1   
   121  109  120 1   
   122  121  122 1   
   123  121  127 1   
   124  122  123 1   
   125  122  125 1   
   126  122  128 1   
   127  123  124 2   
   128  123  132 1   
   129  125  126 1   
   130  125  129 1   
   131  125  130 1   
   132  126  131 1   
   133  132  133 1   
   134  132  137 1   
   135  133  134 1   
   136  133  136 1   
   137  133  138 1   
   138  134  135 2   
   139  134  142 1   
   140  136  139 1   
   141  136  140 1   
   142  136  141 1   
   143  142  143 1   
   144  142  147 1   
   145  143  144 1   
   146  143  146 1   
   147  143  148 1   
   148  144  145 2   
   149  144  152 1   
   150  146  149 1   
   151  146  150 1   
   152  146  151 1   
   153  152  153 1   
   154  152  161 1   
   155  153  154 1   
   156  153  156 1   
   157  153  162 1   
   158  154  155 2   
   159  154  167 1   
   160  156  157 1   
   161  156  163 1   
   162  156  164 1   
   163  157  158 1   
   164  157  165 1   
   165  157  166 1   
   166  158  159 1   
   167  158  160 1   
   168  167  168 1   
   169  167  172 1   
   170  168  169 1   
   171  168  170 1   
   172  168  171 1   
   173  174  175 1   
   174  174  176 1   
   175  177  178 1   
   176  177  179 1   
   177  180  181 1   
   178  180  182 1   
   179  183  184 1   
   180  183  185 1   
@<TRIPOS>SUBSTRUCTURE
     1 MOL         1 TEMP              0 ****  ****    0 ROOT
