@<TRIPOS>MOLECULE
MOL
  192   187     1     0     0
SMALL
resp


@<TRIPOS>ATOM
      1 C1         11.7870    4.2850   -3.1100 c3        1 MOL     -0.388372
      2 C2         11.5810    3.1580   -2.0910 c         1 MOL      0.573755
      3 O1         12.5460    2.4880   -1.8220 o         1 MOL     -0.579423
      4 H1         12.4100    5.0640   -2.6700 hc        1 MOL      0.106282
      5 H2         12.2780    3.8870   -3.9990 hc        1 MOL      0.106282
      6 H3         10.8210    4.7070   -3.3860 hc        1 MOL      0.106282
      7 N1         10.4090    2.9840   -1.5660 n         1 MOL     -0.030243
      8 C3         10.1190    2.2600   -0.3440 c3        1 MOL     -0.697160
      9 C4          8.7920    1.4600   -0.3870 c         1 MOL      0.490191
     10 O2          7.7770    1.8990   -0.9620 o         1 MOL     -0.489463
     11 C5         10.0300    3.3430    0.8210 c3        1 MOL      0.482502
     12 C6          9.1410    4.6360    0.5200 c         1 MOL      0.398460
     13 O3          9.2330    5.6550    1.2510 o         1 MOL     -0.628039
     14 O4          8.3250    4.5160   -0.4160 o         1 MOL     -0.628039
     15 H4          9.6320    3.5230   -1.9210 hn        1 MOL      0.093123
     16 H5         10.9580    1.5720   -0.2240 h1        1 MOL      0.181188
     17 H6         11.0320    3.6460    1.1340 hc        1 MOL     -0.046065
     18 H7          9.6200    2.9430    1.7470 hc        1 MOL     -0.046065
     19 N2          8.7780    0.2840    0.2540 n         1 MOL     -0.154096
     20 C7          7.7390   -0.7360   -0.0870 c3        1 MOL     -0.384765
     21 C8          6.4560   -0.4220    0.5980 c         1 MOL      0.515789
     22 O5          5.4160   -1.0280    0.2620 o         1 MOL     -0.505506
     23 C9          8.3350   -2.1450    0.2050 c3        1 MOL      0.069463
     24 C10         9.3570   -2.4620   -0.8320 c3        1 MOL      0.141946
     25 C11        10.0070   -3.8260   -0.6310 c3        1 MOL     -0.278711
     26 C12        10.7630   -3.7740    0.6890 c3        1 MOL      0.210317
     27 N3         11.6060   -4.9230    0.7800 n4        1 MOL     -0.281117
     28 H8          9.6350    0.1000    0.7540 hn        1 MOL      0.215051
     29 H9          7.5430   -0.7110   -1.1470 h1        1 MOL      0.163679
     30 H10         7.5960   -2.9450    0.2020 hc        1 MOL      0.041485
     31 H11         8.7460   -2.2230    1.2130 hc        1 MOL      0.041485
     32 H12        10.1980   -1.7770   -0.7260 hc        1 MOL      0.012249
     33 H13         8.9760   -2.4120   -1.8470 hc        1 MOL      0.012249
     34 H14        10.6430   -3.8770   -1.5180 hc        1 MOL      0.083232
     35 H15         9.2420   -4.5810   -0.4640 hc        1 MOL      0.083232
     36 H16        10.0260   -3.8180    1.4970 hx        1 MOL      0.030894
     37 H17        11.2950   -2.8310    0.8320 hx        1 MOL      0.030894
     38 H18        12.0900   -4.9130    1.6710 hn        1 MOL      0.258935
     39 H19        11.1020   -5.7940    0.7940 hn        1 MOL      0.258935
     40 H20        12.1490   -5.0350   -0.0560 hn        1 MOL      0.258935
     41 N4          6.3650    0.5420    1.5480 n         1 MOL     -0.401868
     42 C13         5.0970    0.8950    2.2850 c3        1 MOL     -0.016821
     43 C14         3.9600    1.3810    1.3480 c         1 MOL      0.542115
     44 O6          4.1740    2.0820    0.3420 o         1 MOL     -0.600870
     45 C15         5.3970    1.8530    3.3840 c3        1 MOL     -0.477740
     46 C16         6.2130    3.0010    2.9040 c         1 MOL      0.728641
     47 O7          6.3220    3.3790    1.6820 o         1 MOL     -0.657021
     48 O8          6.8520    3.6070    3.8420 o         1 MOL     -0.657021
     49 H21         7.2200    1.0340    1.7510 hn        1 MOL      0.280379
     50 H22         4.8050   -0.0290    2.7830 h1        1 MOL      0.171151
     51 H23         6.0700    1.3320    4.0650 hc        1 MOL      0.155642
     52 H24         4.5160    2.3440    3.7940 hc        1 MOL      0.155642
     53 N5          2.6630    1.0240    1.5960 n         1 MOL     -0.442889
     54 C17         2.0870    0.2230    2.6440 c3        1 MOL      0.042545
     55 C18         2.2540   -1.3640    2.4500 c         1 MOL      0.406372
     56 O9          2.7100   -1.9610    1.4790 o         1 MOL     -0.471465
     57 H25         2.0400    1.3490    0.8650 hn        1 MOL      0.328997
     58 H26         1.0140    0.4410    2.6760 h1        1 MOL      0.066378
     59 H27         2.5970    0.4640    3.5690 h1        1 MOL      0.066378
     60 N6          1.9870   -2.0090    3.5760 n         1 MOL     -0.307841
     61 C19         2.5460   -3.3250    3.8860 c3        1 MOL      0.047383
     62 C20         1.9730   -4.3340    2.9800 c         1 MOL      0.519831
     63 O10         2.6960   -5.1880    2.5440 o         1 MOL     -0.571082
     64 C21         2.3500   -3.6070    5.3470 c3        1 MOL     -0.321234
     65 C22         0.8560   -3.6670    5.7460 c         1 MOL      0.763070
     66 O11         0.1690   -2.6580    6.0220 o         1 MOL     -0.674691
     67 O12         0.3730   -4.7710    5.9070 o         1 MOL     -0.674691
     68 H28         1.3740   -1.5550    4.2350 hn        1 MOL      0.165654
     69 H29         3.6140   -3.3210    3.6760 h1        1 MOL      0.068275
     70 H30         2.8220   -2.7910    5.8990 hc        1 MOL      0.081427
     71 H31         2.9500   -4.4930    5.5240 hc        1 MOL      0.081427
     72 N7          0.7170   -4.3130    2.5930 n         1 MOL     -0.296122
     73 C23         0.0010   -5.3230    1.8040 c3        1 MOL      0.117429
     74 C24        -0.1190   -5.0850    0.2770 c         1 MOL      0.414546
     75 O13        -0.8400   -5.8300   -0.4430 o         1 MOL     -0.543023
     76 H32         0.1740   -3.5830    3.0210 hn        1 MOL      0.212858
     77 H33        -1.0040   -5.3830    2.2230 h1        1 MOL      0.055312
     78 H34         0.3940   -6.3150    1.9980 h1        1 MOL      0.055312
     79 N8          0.6870   -4.0960   -0.2720 n         1 MOL     -0.452652
     80 C25         0.6090   -3.7350   -1.7680 c3        1 MOL      0.282078
     81 C26         0.2830   -2.2200   -1.9330 c         1 MOL      0.156621
     82 O14         0.7070   -1.4020   -1.0500 o         1 MOL     -0.433636
     83 C27         1.9940   -4.0460   -2.3990 c3        1 MOL      0.212260
     84 C28         2.2020   -5.5590   -2.3560 c3        1 MOL     -0.359677
     85 O15         1.8310   -3.7730   -3.8180 oh        1 MOL     -0.636066
     86 H35         1.3560   -3.6990    0.3850 hn        1 MOL      0.273416
     87 H36        -0.1680   -4.3630   -2.2150 h1        1 MOL      0.033658
     88 H37         2.8050   -3.4380   -1.9960 h1        1 MOL      0.061495
     89 H38         2.6450   -4.0330   -4.2380 ho        1 MOL      0.402613
     90 H39         3.1120   -5.8440   -2.8890 hc        1 MOL      0.098779
     91 H40         2.3250   -5.8470   -1.3110 hc        1 MOL      0.098779
     92 H41         1.4750   -6.1380   -2.9230 hc        1 MOL      0.098779
     93 N9         -0.5100   -1.9140   -2.9650 n         1 MOL      0.072620
     94 C29        -1.0600   -0.6420   -3.3070 c3        1 MOL     -0.427999
     95 C30        -2.4170   -0.4080   -2.6300 c         1 MOL      0.698369
     96 O16        -2.6030    0.7900   -2.2570 o         1 MOL     -0.536296
     97 C31        -1.1320   -0.5230   -4.8520 c3        1 MOL      0.258472
     98 C32         0.0560   -1.1700   -5.6060 c3        1 MOL      0.160652
     99 C33        -1.2960    0.8960   -5.3800 c3        1 MOL     -0.330380
    100 C34         1.3330   -0.4320   -5.2650 c3        1 MOL     -0.219858
    101 H42        -0.9150   -2.6670   -3.4930 hn        1 MOL      0.174260
    102 H43        -0.3330    0.0910   -2.9460 h1        1 MOL      0.167085
    103 H44        -1.9830   -1.1190   -5.1910 hc        1 MOL     -0.040046
    104 H45        -0.1820   -1.1000   -6.6650 hc        1 MOL     -0.053676
    105 H46         0.2080   -2.2330   -5.3770 hc        1 MOL     -0.053676
    106 H47        -2.3470    1.1720   -5.2700 hc        1 MOL      0.085483
    107 H48        -0.6530    1.6350   -4.9010 hc        1 MOL      0.085483
    108 H49        -1.0120    0.9550   -6.4350 hc        1 MOL      0.085483
    109 H50         2.1580   -0.8840   -5.8120 hc        1 MOL      0.045872
    110 H51         1.2480    0.6140   -5.5630 hc        1 MOL      0.045872
    111 H52         1.4950   -0.4920   -4.1890 hc        1 MOL      0.045872
    112 N10        -3.1910   -1.4470   -2.3570 n         1 MOL     -0.540302
    113 C35        -4.2640   -1.4860   -1.4120 c3        1 MOL     -0.029099
    114 C36        -5.4410   -2.3420   -1.8200 c         1 MOL      0.760165
    115 O17        -5.3180   -3.1570   -2.7400 o         1 MOL     -0.552178
    116 C37        -3.7230   -2.0710   -0.0950 c3        1 MOL      0.306537
    117 C38        -3.1360   -3.4550    0.0420 c3        1 MOL     -0.477322
    118 O18        -2.6340   -1.2440    0.2370 oh        1 MOL     -0.550649
    119 H53        -2.9130   -2.3800   -2.6410 hn        1 MOL      0.274704
    120 H54        -4.4990   -0.4500   -1.1710 h1        1 MOL      0.097118
    121 H55        -4.5520   -1.9370    0.5960 h1        1 MOL     -0.001089
    122 H56        -2.1500   -1.7460    0.8880 ho        1 MOL      0.375069
    123 H57        -2.9200   -3.7080    1.0850 hc        1 MOL      0.129656
    124 H58        -3.8930   -4.1120   -0.3810 hc        1 MOL      0.129656
    125 H59        -2.3330   -3.5930   -0.6730 hc        1 MOL      0.129656
    126 N11        -6.5840   -2.1890   -1.1620 n         1 MOL     -0.752435
    127 C39        -7.9380   -2.5630   -1.7630 c3        1 MOL      0.044386
    128 C40        -8.8220   -1.3300   -1.9520 c         1 MOL      0.635612
    129 O19        -9.3150   -1.0770   -3.0550 o         1 MOL     -0.570449
    130 C41        -8.5250   -3.5470   -0.8040 c3        1 MOL      0.367396
    131 C42        -9.7190   -4.2430   -1.3340 c3        1 MOL     -0.494587
    132 O20        -8.7120   -2.9160    0.4780 oh        1 MOL     -0.668986
    133 H60        -6.5380   -1.7290   -0.2700 hn        1 MOL      0.363059
    134 H61        -7.7170   -3.0200   -2.7290 h1        1 MOL      0.108749
    135 H62        -7.7250   -4.2770   -0.6480 h1        1 MOL      0.028282
    136 H63        -8.6160   -3.5980    1.1370 ho        1 MOL      0.422117
    137 H64        -9.6120   -4.3330   -2.4120 hc        1 MOL      0.130419
    138 H65        -9.8790   -5.1840   -0.8020 hc        1 MOL      0.130419
    139 H66       -10.5470   -3.5570   -1.1670 hc        1 MOL      0.130419
    140 N12        -9.0620   -0.4770   -0.9350 n         1 MOL     -0.403217
    141 C43        -9.7960    0.7670   -0.8430 c3        1 MOL     -0.091402
    142 C44        -9.1840    1.5880    0.3380 c         1 MOL      0.667920
    143 O21        -8.7040    1.0130    1.3110 o         1 MOL     -0.529883
    144 C45       -11.3360    0.4980   -0.6430 c3        1 MOL     -0.054378
    145 C46       -11.8190   -0.3630    0.5860 c3        1 MOL     -0.094166
    146 C47       -13.3450   -0.1630    0.7230 c3        1 MOL     -0.156118
    147 C48       -13.7200   -1.2340    1.8110 c3        1 MOL      0.190706
    148 N13       -15.1780   -1.3390    1.9680 n4        1 MOL     -0.360662
    149 H67        -8.6410   -0.6550   -0.0290 hn        1 MOL      0.217561
    150 H68        -9.7200    1.3770   -1.7400 h1        1 MOL      0.108442
    151 H69       -11.7040    0.0460   -1.5660 hc        1 MOL      0.047593
    152 H70       -11.8990    1.4270   -0.7180 hc        1 MOL      0.047593
    153 H71       -11.3370    0.0750    1.4570 hc        1 MOL      0.086912
    154 H72       -11.6030   -1.3880    0.2880 hc        1 MOL      0.086912
    155 H73       -14.0320   -0.3790   -0.0930 hc        1 MOL      0.067087
    156 H74       -13.4370    0.8460    1.1440 hc        1 MOL      0.067087
    157 H75       -13.2020   -1.0350    2.7460 hx        1 MOL      0.037694
    158 H76       -13.1840   -2.1260    1.4990 hx        1 MOL      0.037694
    159 H77       -15.5130   -0.5420    2.4940 hn        1 MOL      0.280006
    160 H78       -15.6850   -1.3270    1.0890 hn        1 MOL      0.280006
    161 H79       -15.4360   -2.1830    2.4500 hn        1 MOL      0.280006
    162 N14        -9.2890    2.8930    0.2200 n         1 MOL     -0.591876
    163 C49        -8.8750    3.8000    1.2710 c3        1 MOL      0.210748
    164 C50        -7.3200    4.1080    1.2750 c         1 MOL      0.360000
    165 O22        -6.7790    4.2310    2.3210 o         1 MOL     -0.495271
    166 C51        -9.5440    5.2080    1.0380 c3        1 MOL     -0.077362
    167 C52        -8.9970    6.4050    1.8210 c3        1 MOL     -0.056051
    168 C53        -9.7570    7.6960    1.4580 c         1 MOL      0.650505
    169 O23        -9.9840    8.5340    2.3860 o         1 MOL     -0.641028
    170 O24       -10.1320    7.8440    0.2540 o         1 MOL     -0.641028
    171 H80        -9.7670    3.3060   -0.5750 hn        1 MOL      0.313812
    172 H81        -9.0900    3.4770    2.2860 h1        1 MOL      0.054860
    173 H82       -10.5970    5.1530    1.3170 hc        1 MOL      0.008764
    174 H83        -9.5430    5.3960   -0.0320 hc        1 MOL      0.008764
    175 H84        -7.9580    6.5520    1.5280 hc        1 MOL      0.019730
    176 H85        -9.0480    6.2210    2.8880 hc        1 MOL      0.019730
    177 N15        -6.6480    4.1360    0.0840 n         1 MOL     -0.268128
    178 C54        -7.0190    3.9470   -1.3640 c3        1 MOL     -0.181806
    179 H86        -7.7450    3.1390   -1.4500 h1        1 MOL      0.093585
    180 H87        -7.4530    4.8690   -1.7520 h1        1 MOL      0.093585
    181 H88        -6.1270    3.6960   -1.9380 h1        1 MOL      0.093585
    182 H89        -5.6620    4.2600    0.2620 hn        1 MOL      0.259850
    183 Ca1         5.8760    3.6680   -0.9360 Ca        1 MOL      1.666670
    184 O25         5.1020    1.4590   -2.3930 oh        1 MOL     -0.806630
    185 H90         5.5680    0.8720   -2.9890 ho        1 MOL      0.406057
    186 H91         4.4080    0.9230   -2.0160 ho        1 MOL      0.406057
    187 O26         3.5500    4.2460   -2.3840 oh        1 MOL     -0.806630
    188 H92         2.8400    3.9310   -2.9320 ho        1 MOL      0.406057
    189 H93         3.3000    5.1540   -2.1790 ho        1 MOL      0.406057
    190 O27         4.1180    5.4820    0.3990 oh        1 MOL     -0.806630
    191 H94         3.8310    6.3890    0.2930 ho        1 MOL      0.406057
    192 H95         4.6270    5.4900    1.2160 ho        1 MOL      0.406057
@<TRIPOS>BOND
     1    1    2 1   
     2    1    4 1   
     3    1    5 1   
     4    1    6 1   
     5    2    3 2   
     6    2    7 1   
     7    7    8 1   
     8    7   15 1   
     9    8    9 1   
    10    8   11 1   
    11    8   16 1   
    12    9   10 2   
    13    9   19 1   
    14   11   12 1   
    15   11   17 1   
    16   11   18 1   
    17   12   13 1   
    18   12   14 1   
    19   19   20 1   
    20   19   28 1   
    21   20   21 1   
    22   20   23 1   
    23   20   29 1   
    24   21   22 2   
    25   21   41 1   
    26   23   24 1   
    27   23   30 1   
    28   23   31 1   
    29   24   25 1   
    30   24   32 1   
    31   24   33 1   
    32   25   26 1   
    33   25   34 1   
    34   25   35 1   
    35   26   27 1   
    36   26   36 1   
    37   26   37 1   
    38   27   38 1   
    39   27   39 1   
    40   27   40 1   
    41   41   42 1   
    42   41   49 1   
    43   42   43 1   
    44   42   45 1   
    45   42   50 1   
    46   43   44 2   
    47   43   53 1   
    48   45   46 1   
    49   45   51 1   
    50   45   52 1   
    51   46   47 1   
    52   46   48 1   
    53   53   54 1   
    54   53   57 1   
    55   54   55 1   
    56   54   58 1   
    57   54   59 1   
    58   55   56 2   
    59   55   60 1   
    60   60   61 1   
    61   60   68 1   
    62   61   62 1   
    63   61   64 1   
    64   61   69 1   
    65   62   63 2   
    66   62   72 1   
    67   64   65 1   
    68   64   70 1   
    69   64   71 1   
    70   65   66 1   
    71   65   67 1   
    72   72   73 1   
    73   72   76 1   
    74   73   74 1   
    75   73   77 1   
    76   73   78 1   
    77   74   75 2   
    78   74   79 1   
    79   79   80 1   
    80   79   86 1   
    81   80   81 1   
    82   80   83 1   
    83   80   87 1   
    84   81   82 2   
    85   81   93 1   
    86   83   84 1   
    87   83   85 1   
    88   83   88 1   
    89   84   90 1   
    90   84   91 1   
    91   84   92 1   
    92   85   89 1   
    93   93   94 1   
    94   93  101 1   
    95   94   95 1   
    96   94   97 1   
    97   94  102 1   
    98   95   96 2   
    99   95  112 1   
   100   97   98 1   
   101   97   99 1   
   102   97  103 1   
   103   98  100 1   
   104   98  104 1   
   105   98  105 1   
   106   99  106 1   
   107   99  107 1   
   108   99  108 1   
   109  100  109 1   
   110  100  110 1   
   111  100  111 1   
   112  112  113 1   
   113  112  119 1   
   114  113  114 1   
   115  113  116 1   
   116  113  120 1   
   117  114  115 2   
   118  114  126 1   
   119  116  117 1   
   120  116  118 1   
   121  116  121 1   
   122  117  123 1   
   123  117  124 1   
   124  117  125 1   
   125  118  122 1   
   126  126  127 1   
   127  126  133 1   
   128  127  128 1   
   129  127  130 1   
   130  127  134 1   
   131  128  129 2   
   132  128  140 1   
   133  130  131 1   
   134  130  132 1   
   135  130  135 1   
   136  131  137 1   
   137  131  138 1   
   138  131  139 1   
   139  132  136 1   
   140  140  141 1   
   141  140  149 1   
   142  141  142 1   
   143  141  144 1   
   144  141  150 1   
   145  142  143 2   
   146  142  162 1   
   147  144  145 1   
   148  144  151 1   
   149  144  152 1   
   150  145  146 1   
   151  145  153 1   
   152  145  154 1   
   153  146  147 1   
   154  146  155 1   
   155  146  156 1   
   156  147  148 1   
   157  147  157 1   
   158  147  158 1   
   159  148  159 1   
   160  148  160 1   
   161  148  161 1   
   162  162  163 1   
   163  162  171 1   
   164  163  164 1   
   165  163  166 1   
   166  163  172 1   
   167  164  165 2   
   168  164  177 1   
   169  166  167 1   
   170  166  173 1   
   171  166  174 1   
   172  167  168 1   
   173  167  175 1   
   174  167  176 1   
   175  168  169 1   
   176  168  170 1   
   177  177  178 1   
   178  177  182 1   
   179  178  179 1   
   180  178  180 1   
   181  178  181 1   
   182  184  185 1   
   183  184  186 1   
   184  187  188 1   
   185  187  189 1   
   186  190  191 1   
   187  190  192 1   
@<TRIPOS>SUBSTRUCTURE
     1 MOL         1 TEMP              0 ****  ****    0 ROOT
