@<TRIPOS>MOLECULE
MOL
  182   178     1     0     0
SMALL
resp


@<TRIPOS>ATOM
      1 C1          1.0400   -4.9280    5.6550 c3        1 MOL     -0.424046
      2 C2          1.0930   -4.5740    4.1570 c         1 MOL      0.651056
      3 O1          0.0530   -4.4300    3.4800 o         1 MOL     -0.606400
      4 H1          1.9980   -4.6900    6.1180 hc        1 MOL      0.123918
      5 H2          0.2510   -4.3510    6.1370 hc        1 MOL      0.123918
      6 H3          0.8350   -5.9920    5.7710 hc        1 MOL      0.123918
      7 N1          2.2980   -4.2420    3.7520 n         1 MOL     -0.443457
      8 C3          2.5550   -3.6270    2.4370 c3        1 MOL     -0.063291
      9 C4          3.4820   -4.5930    1.6500 c         1 MOL      0.380535
     10 O2          4.4660   -5.1020    2.1900 o         1 MOL     -0.491168
     11 C5          3.1680   -2.2100    2.5720 c3        1 MOL      0.065471
     12 C6          3.2870   -1.3760    1.3490 c         1 MOL      0.399416
     13 O3          3.8430   -0.2180    1.5300 o         1 MOL     -0.658889
     14 O4          2.8490   -1.7600    0.2130 o         1 MOL     -0.658889
     15 H4          3.1170   -4.3630    4.3340 hn        1 MOL      0.304627
     16 H5          1.5700   -3.5340    1.9620 h1        1 MOL      0.081770
     17 H6          4.1400   -2.2670    3.0690 hc        1 MOL      0.050280
     18 H7          2.5580   -1.7090    3.3290 hc        1 MOL      0.050280
     19 N2          3.2570   -4.8110    0.3400 n         1 MOL     -0.250977
     20 C7          4.0150   -5.7470   -0.5140 c3        1 MOL     -0.113679
     21 C8          5.2560   -5.0440   -1.0280 c         1 MOL      0.581143
     22 O5          6.2910   -5.6150   -1.1160 o         1 MOL     -0.526589
     23 C9          3.2350   -6.2870   -1.6340 c3        1 MOL      0.137351
     24 C10         2.0490   -7.1110   -1.1790 c3        1 MOL     -0.028379
     25 C11         1.3370   -7.5330   -2.5350 c3        1 MOL      0.029358
     26 C12         0.1030   -8.3240   -2.1500 c3        1 MOL     -0.006373
     27 N3         -0.9420   -8.4200   -3.2230 n4        1 MOL     -0.234408
     28 H8          2.3600   -4.3990    0.1320 hn        1 MOL      0.246776
     29 H9          4.3330   -6.5840    0.1030 h1        1 MOL      0.125712
     30 H10         3.9630   -6.8300   -2.2490 hc        1 MOL     -0.019694
     31 H11         2.7740   -5.4970   -2.2350 hc        1 MOL     -0.019694
     32 H12         1.3660   -6.5260   -0.5720 hc        1 MOL      0.014173
     33 H13         2.4520   -7.9740   -0.6510 hc        1 MOL      0.014173
     34 H14         2.0720   -8.0890   -3.1330 hc        1 MOL      0.019295
     35 H15         1.1000   -6.6280   -3.0860 hc        1 MOL      0.019295
     36 H16        -0.2960   -7.8560   -1.2520 hx        1 MOL      0.083623
     37 H17         0.4960   -9.3060   -1.8530 hx        1 MOL      0.083623
     38 H18        -1.2120   -7.4990   -3.5320 hn        1 MOL      0.236561
     39 H19        -0.6250   -9.0160   -3.9830 hn        1 MOL      0.236561
     40 H20        -1.7750   -8.9190   -2.9570 hn        1 MOL      0.236561
     41 N4          5.1210   -3.7090   -1.2450 n         1 MOL     -0.415485
     42 C13         6.1790   -2.9510   -1.9390 c3        1 MOL     -0.010261
     43 C14         7.0330   -1.9990   -1.0360 c         1 MOL      0.460110
     44 O6          8.1760   -1.6840   -1.3580 o         1 MOL     -0.544829
     45 C15         5.8030   -2.1920   -3.2100 c3        1 MOL     -0.248409
     46 C16         4.9640   -0.9200   -3.0300 c         1 MOL      0.808053
     47 O7          4.5800   -0.4620   -1.9370 o         1 MOL     -0.711677
     48 O8          4.5980   -0.4500   -4.1070 o         1 MOL     -0.711677
     49 H21         4.1600   -3.4060   -1.2830 hn        1 MOL      0.242482
     50 H22         6.8180   -3.7380   -2.3450 h1        1 MOL      0.112549
     51 H23         5.4070   -2.8980   -3.9380 hc        1 MOL      0.081425
     52 H24         6.7800   -1.9650   -3.6310 hc        1 MOL      0.081425
     53 N5          6.4910   -1.6890    0.1420 n         1 MOL     -0.117164
     54 C17         7.1070   -0.8390    1.2090 c3        1 MOL     -0.436812
     55 C18         6.9450    0.6480    0.9870 c         1 MOL      0.667652
     56 O9          7.4160    1.4140    1.8610 o         1 MOL     -0.586539
     57 H25         5.5100   -1.8890    0.2860 hn        1 MOL      0.172516
     58 H26         8.1740   -1.0620    1.1390 h1        1 MOL      0.179668
     59 H27         6.6920   -1.0910    2.1830 h1        1 MOL      0.179668
     60 N6          6.3890    1.0600   -0.1720 n         1 MOL     -0.157039
     61 C19         6.5390    2.4330   -0.5990 c3        1 MOL     -0.130525
     62 C20         5.3060    3.2620   -0.5690 c         1 MOL      0.486381
     63 O10         4.1900    2.7410   -0.8130 o         1 MOL     -0.579838
     64 C21         7.1890    2.2950   -2.0380 c3        1 MOL     -0.233621
     65 C22         7.5170    3.6380   -2.6410 c         1 MOL      0.726704
     66 N7          8.6770    4.1730   -2.5570 n         1 MOL     -0.810389
     67 O11         6.6680    4.2420   -3.2270 o         1 MOL     -0.594081
     68 H28         5.9610    0.3350   -0.7230 hn        1 MOL      0.152759
     69 H29         7.3280    2.8670    0.0290 h1        1 MOL      0.054218
     70 H30         6.4960    1.7490   -2.6610 hc        1 MOL      0.090090
     71 H31         8.0840    1.7100   -1.8500 hc        1 MOL      0.090090
     72 H32         9.3600    3.7020   -1.9920 hn        1 MOL      0.370450
     73 H33         8.7990    5.1150   -2.9020 hn        1 MOL      0.370450
     74 N8          5.4150    4.5650   -0.3160 n         1 MOL     -0.142683
     75 C23         4.4500    5.6020   -0.0940 c3        1 MOL     -0.346079
     76 C24         3.4160    5.1970    0.8890 c         1 MOL      0.675655
     77 O12         3.6650    5.0460    2.0770 o         1 MOL     -0.543534
     78 H34         6.3910    4.8320   -0.2490 hn        1 MOL      0.234194
     79 H35         3.9990    5.8050   -1.0660 h1        1 MOL      0.141249
     80 H36         4.9240    6.4940    0.3350 h1        1 MOL      0.141249
     81 N9          2.1590    5.1490    0.4990 n         1 MOL     -0.475095
     82 C25         0.9840    4.7050    1.2750 c3        1 MOL     -0.036191
     83 C26         1.0610    3.2140    1.6280 c         1 MOL      0.662434
     84 O13         1.7950    2.4150    0.9720 o         1 MOL     -0.523647
     85 C27        -0.2860    4.9700    0.4790 c3        1 MOL     -0.147236
     86 C28        -0.4950    6.4420    0.1300 ca        1 MOL      0.074048
     87 C29        -0.7380    7.4120    1.1470 ca        1 MOL     -0.143440
     88 C30        -0.5970    6.8180   -1.2120 ca        1 MOL     -0.143440
     89 C31        -0.9160    8.7470    0.7000 ca        1 MOL     -0.300770
     90 C32        -0.6700    8.1490   -1.5590 ca        1 MOL     -0.300770
     91 C33        -0.8330    9.1630   -0.6150 ca        1 MOL      0.418772
     92 O14        -0.7600   10.4800   -0.8960 oh        1 MOL     -0.492036
     93 H37         2.0790    5.2790   -0.4990 hn        1 MOL      0.283345
     94 H38         0.9580    5.2790    2.1950 h1        1 MOL      0.092132
     95 H39        -1.1090    4.7050    1.1350 hc        1 MOL      0.059030
     96 H40        -0.3180    4.2350   -0.3330 hc        1 MOL      0.059030
     97 H41        -0.8550    7.0760    2.1610 ha        1 MOL      0.139690
     98 H42        -0.5990    6.0590   -1.9770 ha        1 MOL      0.139690
     99 H43        -1.0170    9.4930    1.4750 ha        1 MOL      0.153760
    100 H44        -0.7580    8.4000   -2.6000 ha        1 MOL      0.153760
    101 H45        -0.4270   10.9430   -0.1250 ho        1 MOL      0.362990
    102 N10         0.2700    2.7990    2.6550 n         1 MOL     -0.573239
    103 C34        -0.1480    1.3930    2.9110 c3        1 MOL     -0.015794
    104 C35        -0.2880    0.3920    1.7080 c         1 MOL      0.310562
    105 O15         0.6600    0.0010    1.0010 o         1 MOL     -0.352420
    106 C36         0.7040    0.7440    4.0720 c3        1 MOL      0.186794
    107 C37         0.2300   -0.7240    4.3110 c3        1 MOL      0.115389
    108 C38         0.8520    1.6390    5.2570 c3        1 MOL     -0.323155
    109 C39        -1.0840   -0.7450    5.0140 c3        1 MOL     -0.263095
    110 H46        -0.2460    3.5540    3.0730 hn        1 MOL      0.322256
    111 H47        -1.1230    1.5750    3.3680 h1        1 MOL      0.095742
    112 H48         1.6880    0.6330    3.6310 hc        1 MOL      0.039700
    113 H49         1.0100   -1.1090    4.9740 hc        1 MOL     -0.009043
    114 H50         0.1640   -1.3190    3.4030 hc        1 MOL     -0.009043
    115 H51         1.3510    2.5830    5.0520 hc        1 MOL      0.084853
    116 H52        -0.0440    1.7340    5.8720 hc        1 MOL      0.084853
    117 H53         1.5430    1.1340    5.9350 hc        1 MOL      0.084853
    118 H54        -1.8430   -0.2530    4.4110 hc        1 MOL      0.059119
    119 H55        -1.3670   -1.7670    5.2600 hc        1 MOL      0.059119
    120 H56        -0.9640   -0.1910    5.9580 hc        1 MOL      0.059119
    121 N11        -1.5050   -0.0680    1.3540 n         1 MOL     -0.169758
    122 C40        -1.6470   -1.1290    0.3560 c3        1 MOL     -0.247177
    123 C41        -3.1100   -1.1180   -0.2090 c         1 MOL      0.837126
    124 O16        -3.3690   -1.6720   -1.2800 o         1 MOL     -0.573895
    125 C42        -1.1560   -2.4360    0.9100 c3        1 MOL      0.295722
    126 O17        -1.8110   -2.6440    2.1790 oh        1 MOL     -0.607289
    127 H57        -2.3100    0.2660    1.8760 hn        1 MOL      0.155978
    128 H58        -0.9810   -0.9260   -0.4890 h1        1 MOL      0.075782
    129 H59        -0.0680   -2.5120    0.9930 h1        1 MOL     -0.045764
    130 H60        -1.4600   -3.1500    0.1470 h1        1 MOL     -0.045764
    131 H61        -1.4800   -3.4830    2.4950 ho        1 MOL      0.424284
    132 N12        -3.9960   -0.4390    0.4990 n         1 MOL     -0.779176
    133 C43        -5.4020   -0.2990    0.1200 c3        1 MOL      0.217774
    134 C44        -5.6300    0.5210   -1.2060 c         1 MOL      0.539183
    135 O18        -4.7780    1.3330   -1.6280 o         1 MOL     -0.531709
    136 C45        -6.1340    0.2260    1.2970 c3        1 MOL     -0.254355
    137 H62        -3.7660   -0.1550    1.4450 hn        1 MOL      0.422710
    138 H63        -5.7780   -1.2960   -0.1200 h1        1 MOL      0.086694
    139 H64        -7.2000    0.0530    1.1350 hc        1 MOL      0.075589
    140 H65        -5.8750   -0.1770    2.2700 hc        1 MOL      0.075589
    141 H66        -5.9700    1.3050    1.3230 hc        1 MOL      0.075589
    142 N13        -6.7110    0.1910   -1.9510 n         1 MOL     -0.609608
    143 C46        -7.7170   -0.8220   -1.7300 c3        1 MOL      0.296258
    144 C47        -9.1050   -0.3820   -2.4120 c         1 MOL      0.315377
    145 O19        -9.0040    0.0740   -3.5700 o         1 MOL     -0.507589
    146 C48        -7.1960   -2.1120   -2.3920 c3        1 MOL     -0.054313
    147 H67        -6.8120    0.8130   -2.7470 hn        1 MOL      0.342447
    148 H68        -7.8590   -1.0470   -0.6700 h1        1 MOL     -0.032091
    149 H69        -6.9990   -1.9740   -3.4580 hc        1 MOL      0.024267
    150 H70        -6.3130   -2.5110   -1.8910 hc        1 MOL      0.024267
    151 H71        -7.9380   -2.9150   -2.3820 hc        1 MOL      0.024267
    152 N14       -10.3150   -0.4440   -1.8170 n         1 MOL     -0.223435
    153 C49       -10.5410   -0.8800   -0.4760 c3        1 MOL     -0.195726
    154 C50       -10.0390    0.1170    0.5730 c         1 MOL      0.448847
    155 O20        -9.7690   -0.3670    1.7470 o         1 MOL     -0.541340
    156 C51       -12.0130   -1.2530   -0.2190 c3        1 MOL      0.000251
    157 C52       -13.0980   -0.2200   -0.4050 c3        1 MOL     -0.299764
    158 C53       -14.4870   -0.7390   -0.7120 c         1 MOL      0.746445
    159 O21       -15.3230   -0.7810    0.1780 o         1 MOL     -0.654813
    160 O22       -14.7330   -0.9830   -1.9090 o         1 MOL     -0.654813
    161 H72       -11.0560   -0.2560   -2.4760 hn        1 MOL      0.278321
    162 H73        -9.9280   -1.7730   -0.3470 h1        1 MOL      0.098583
    163 H74       -12.0590   -1.6510    0.7840 hc        1 MOL      0.063499
    164 H75       -12.2100   -2.1730   -0.7820 hc        1 MOL      0.063499
    165 H76       -12.8900    0.5420   -1.1570 hc        1 MOL      0.076527
    166 H77       -13.2820    0.2150    0.5760 hc        1 MOL      0.076527
    167 N15        -9.9650    1.3680    0.2680 n         1 MOL     -0.229824
    168 C54        -9.5130    2.4490    1.1890 c3        1 MOL     -0.191982
    169 H78        -8.4970    2.2380    1.5240 h1        1 MOL      0.105227
    170 H79        -9.5300    3.4040    0.6640 h1        1 MOL      0.105227
    171 H80       -10.1770    2.4940    2.0510 h1        1 MOL      0.105227
    172 H81       -10.3750    1.5930   -0.6360 hn        1 MOL      0.239944
    173 Ca1         2.4720    0.5350   -0.8090 Ca        1 MOL      1.718439
    174 O23         3.0710    1.4670   -3.2160 oh        1 MOL     -0.849237
    175 H82         2.8860    1.9760   -3.9990 ho        1 MOL      0.416325
    176 H83         3.7930    0.8980   -3.4530 ho        1 MOL      0.416325
    177 O24         1.5590   -1.5300   -2.2140 oh        1 MOL     -0.849237
    178 H84         0.9940   -1.7100   -2.9670 ho        1 MOL      0.416325
    179 H85         1.4470   -2.2920   -1.6420 ho        1 MOL      0.416325
    180 O25         0.2960    1.7670   -1.8890 oh        1 MOL     -0.849237
    181 H86        -0.6490    1.6480   -1.9680 ho        1 MOL      0.416325
    182 H87         0.5460    2.2360   -2.6830 ho        1 MOL      0.416325
@<TRIPOS>BOND
     1    1    2 1   
     2    1    4 1   
     3    1    5 1   
     4    1    6 1   
     5    2    3 2   
     6    2    7 1   
     7    7    8 1   
     8    7   15 1   
     9    8    9 1   
    10    8   11 1   
    11    8   16 1   
    12    9   10 2   
    13    9   19 1   
    14   11   12 1   
    15   11   17 1   
    16   11   18 1   
    17   12   13 1   
    18   12   14 1   
    19   19   20 1   
    20   19   28 1   
    21   20   21 1   
    22   20   23 1   
    23   20   29 1   
    24   21   22 2   
    25   21   41 1   
    26   23   24 1   
    27   23   30 1   
    28   23   31 1   
    29   24   25 1   
    30   24   32 1   
    31   24   33 1   
    32   25   26 1   
    33   25   34 1   
    34   25   35 1   
    35   26   27 1   
    36   26   36 1   
    37   26   37 1   
    38   27   38 1   
    39   27   39 1   
    40   27   40 1   
    41   41   42 1   
    42   41   49 1   
    43   42   43 1   
    44   42   45 1   
    45   42   50 1   
    46   43   44 2   
    47   43   53 1   
    48   45   46 1   
    49   45   51 1   
    50   45   52 1   
    51   46   47 1   
    52   46   48 1   
    53   53   54 1   
    54   53   57 1   
    55   54   55 1   
    56   54   58 1   
    57   54   59 1   
    58   55   56 2   
    59   55   60 1   
    60   60   61 1   
    61   60   68 1   
    62   61   62 1   
    63   61   64 1   
    64   61   69 1   
    65   62   63 2   
    66   62   74 1   
    67   64   65 1   
    68   64   70 1   
    69   64   71 1   
    70   65   66 1   
    71   65   67 2   
    72   66   72 1   
    73   66   73 1   
    74   74   75 1   
    75   74   78 1   
    76   75   76 1   
    77   75   79 1   
    78   75   80 1   
    79   76   77 2   
    80   76   81 1   
    81   81   82 1   
    82   81   93 1   
    83   82   83 1   
    84   82   85 1   
    85   82   94 1   
    86   83   84 2   
    87   83  102 1   
    88   85   86 1   
    89   85   95 1   
    90   85   96 1   
    91   86   87 ar  
    92   86   88 ar  
    93   87   89 ar  
    94   87   97 1   
    95   88   90 ar  
    96   88   98 1   
    97   89   91 ar  
    98   89   99 1   
    99   90   91 ar  
   100   90  100 1   
   101   91   92 1   
   102   92  101 1   
   103  102  103 1   
   104  102  110 1   
   105  103  104 1   
   106  103  106 1   
   107  103  111 1   
   108  104  105 2   
   109  104  121 1   
   110  106  107 1   
   111  106  108 1   
   112  106  112 1   
   113  107  109 1   
   114  107  113 1   
   115  107  114 1   
   116  108  115 1   
   117  108  116 1   
   118  108  117 1   
   119  109  118 1   
   120  109  119 1   
   121  109  120 1   
   122  121  122 1   
   123  121  127 1   
   124  122  123 1   
   125  122  125 1   
   126  122  128 1   
   127  123  124 2   
   128  123  132 1   
   129  125  126 1   
   130  125  129 1   
   131  125  130 1   
   132  126  131 1   
   133  132  133 1   
   134  132  137 1   
   135  133  134 1   
   136  133  136 1   
   137  133  138 1   
   138  134  135 2   
   139  134  142 1   
   140  136  139 1   
   141  136  140 1   
   142  136  141 1   
   143  142  143 1   
   144  142  147 1   
   145  143  144 1   
   146  143  146 1   
   147  143  148 1   
   148  144  145 2   
   149  144  152 1   
   150  146  149 1   
   151  146  150 1   
   152  146  151 1   
   153  152  153 1   
   154  152  161 1   
   155  153  154 1   
   156  153  156 1   
   157  153  162 1   
   158  154  155 2   
   159  154  167 1   
   160  156  157 1   
   161  156  163 1   
   162  156  164 1   
   163  157  158 1   
   164  157  165 1   
   165  157  166 1   
   166  158  159 1   
   167  158  160 1   
   168  167  168 1   
   169  167  172 1   
   170  168  169 1   
   171  168  170 1   
   172  168  171 1   
   173  174  175 1   
   174  174  176 1   
   175  177  178 1   
   176  177  179 1   
   177  180  181 1   
   178  180  182 1   
@<TRIPOS>SUBSTRUCTURE
     1 MOL         1 TEMP              0 ****  ****    0 ROOT
