@<TRIPOS>MOLECULE
MOL
  181   177     1     0     0
SMALL
resp


@<TRIPOS>ATOM
      1 C1          2.0880    7.3180   -1.0980 c3        1 MOL     -0.356172
      2 C2          3.4240    6.5880   -1.1450 c         1 MOL      0.732425
      3 O1          4.2100    6.8640   -0.3020 o         1 MOL     -0.579422
      4 H1          1.2840    6.5950   -0.9560 hc        1 MOL      0.085179
      5 H2          2.0890    8.0260   -0.2690 hc        1 MOL      0.085179
      6 H3          1.9320    7.8530   -2.0350 hc        1 MOL      0.085179
      7 N1          3.6570    5.6410   -2.1060 n         1 MOL     -0.678148
      8 C3          4.8640    4.8760   -2.0090 c3        1 MOL      0.320348
      9 C4          4.7230    3.9680   -0.7930 c         1 MOL      0.630561
     10 O2          3.9390    3.0130   -0.7750 o         1 MOL     -0.570222
     11 C5          5.1950    3.9210   -3.2380 c3        1 MOL     -0.452732
     12 C6          6.3920    2.9740   -2.9490 c         1 MOL      0.783272
     13 O3          6.3680    1.7840   -3.3510 o         1 MOL     -0.744244
     14 O4          7.3390    3.3570   -2.2390 o         1 MOL     -0.744244
     15 H4          2.9300    5.4650   -2.7890 hn        1 MOL      0.330769
     16 H5          5.7010    5.5720   -1.9870 h1        1 MOL      0.004692
     17 H6          5.4900    4.5170   -4.1030 hc        1 MOL      0.080051
     18 H7          4.3320    3.3280   -3.5390 hc        1 MOL      0.080051
     19 N2          5.3890    4.3270    0.3530 n         1 MOL     -0.614083
     20 C7          5.2050    3.7110    1.7170 c3        1 MOL      0.483350
     21 C8          3.7050    3.6810    2.1690 c         1 MOL      0.417114
     22 O5          2.9600    4.6200    1.9060 o         1 MOL     -0.504421
     23 C9          6.1400    4.3550    2.6960 c3        1 MOL     -0.409701
     24 H8          5.9280    5.1810    0.3260 hn        1 MOL      0.298213
     25 H9          5.5130    2.6710    1.5920 h1        1 MOL      0.046492
     26 H10         7.1710    4.0680    2.5030 hc        1 MOL      0.097109
     27 H11         6.1330    5.4350    2.5620 hc        1 MOL      0.097109
     28 H12         5.9320    4.1060    3.7370 hc        1 MOL      0.097109
     29 N3          3.2380    2.6640    2.9680 n         1 MOL     -0.478843
     30 C10         4.0250    1.4540    3.4360 c3        1 MOL      0.072276
     31 C11         4.2330    0.2930    2.4550 c         1 MOL      0.063793
     32 O6          3.5590    0.2480    1.4070 o         1 MOL     -0.279970
     33 C12         3.4670    0.8450    4.7990 c3        1 MOL     -0.035187
     34 C13         1.9820    0.3700    4.7730 c         1 MOL      0.598674
     35 O7          1.5160   -0.0700    3.6780 o         1 MOL     -0.631222
     36 O8          1.2600    0.4450    5.7860 o         1 MOL     -0.631222
     37 H13         2.2910    2.6940    3.3290 hn        1 MOL      0.333401
     38 H14         5.0540    1.7690    3.5990 h1        1 MOL      0.030119
     39 H15         3.6250    1.5480    5.6130 hc        1 MOL     -0.002000
     40 H16         3.9990   -0.0440    5.1290 hc        1 MOL     -0.002000
     41 N4          5.2560   -0.5360    2.7170 n         1 MOL     -0.233737
     42 C14         5.7220   -1.6760    1.9170 c3        1 MOL      0.012199
     43 C15         6.8270   -1.3060    0.8830 c         1 MOL      0.474449
     44 O9          7.3680   -0.2150    0.8930 o         1 MOL     -0.494123
     45 H17         5.8000   -0.3580    3.5430 hn        1 MOL      0.249945
     46 H18         4.8340   -2.0660    1.4160 h1        1 MOL      0.055486
     47 H19         6.0760   -2.5280    2.5040 h1        1 MOL      0.055486
     48 N5          7.1550   -2.0970   -0.1520 n         1 MOL     -0.559330
     49 C16         6.5650   -3.4740   -0.4860 c3        1 MOL      0.390993
     50 C17         5.8050   -3.3680   -1.8350 c         1 MOL      0.348060
     51 O10         5.9810   -4.2210   -2.7370 o         1 MOL     -0.491541
     52 C18         7.6990   -4.5040   -0.3260 c3        1 MOL     -0.518149
     53 C19         8.2970   -4.6470    1.0410 c         1 MOL      0.811222
     54 N6          9.4980   -5.0890    1.1010 n         1 MOL     -0.819855
     55 O11         7.7570   -4.4610    2.1070 o         1 MOL     -0.572233
     56 H20         7.9230   -1.7790   -0.7290 hn        1 MOL      0.342922
     57 H21         5.8540   -3.7270    0.3100 h1        1 MOL      0.006356
     58 H22         8.4710   -4.3410   -1.0730 hc        1 MOL      0.117086
     59 H23         7.2450   -5.4620   -0.5850 hc        1 MOL      0.117086
     60 H24         9.8770   -5.3520    0.2050 hn        1 MOL      0.368564
     61 H25         9.9840   -5.2850    1.9670 hn        1 MOL      0.368564
     62 N7          4.9240   -2.3420   -2.1180 n         1 MOL     -0.194875
     63 C20         4.0660   -2.1520   -3.2520 c3        1 MOL     -0.246793
     64 C21         2.7910   -2.9660   -3.4000 c         1 MOL      0.589568
     65 O12         2.3090   -3.2350   -4.4850 o         1 MOL     -0.565992
     66 H26         4.9710   -1.5660   -1.4750 hn        1 MOL      0.263564
     67 H27         4.6810   -2.4030   -4.1130 h1        1 MOL      0.130498
     68 H28         3.7330   -1.1130   -3.2420 h1        1 MOL      0.130498
     69 N8          2.2280   -3.3970   -2.2450 n         1 MOL     -0.153395
     70 C22         1.0540   -4.2040   -2.0420 c3        1 MOL     -0.063591
     71 C23        -0.0470   -3.2750   -1.4230 c         1 MOL      0.597727
     72 O13         0.2630   -2.3800   -0.6570 o         1 MOL     -0.522839
     73 C24         1.2600   -5.3640   -1.0300 c3        1 MOL      0.268298
     74 C25         1.9330   -6.5140   -1.7230 c3        1 MOL     -0.393796
     75 O14         2.1370   -4.9990   -0.0170 oh        1 MOL     -0.567949
     76 H29         2.6110   -3.0390   -1.3800 hn        1 MOL      0.110308
     77 H30         0.6240   -4.6140   -2.9520 h1        1 MOL      0.079025
     78 H31         0.2940   -5.6240   -0.6130 h1        1 MOL      0.021754
     79 H32         2.0770   -5.7600    0.5580 ho        1 MOL      0.394266
     80 H33         1.0990   -6.8600   -2.3490 hc        1 MOL      0.097714
     81 H34         2.7130   -6.0860   -2.3540 hc        1 MOL      0.097714
     82 H35         2.2240   -7.3650   -1.1140 hc        1 MOL      0.097714
     83 N9         -1.2830   -3.5580   -1.8910 n         1 MOL     -0.496690
     84 C26        -2.5460   -2.8260   -1.7140 c3        1 MOL     -0.414716
     85 C27        -3.3910   -3.2170   -0.4730 c         1 MOL      0.886477
     86 O15        -3.7650   -4.3230   -0.3260 o         1 MOL     -0.631619
     87 C28        -3.4920   -2.9590   -2.9150 c3        1 MOL      0.206607
     88 C29        -4.8140   -2.1860   -2.6660 c3        1 MOL      0.035984
     89 C30        -2.7120   -2.3120   -4.0420 c3        1 MOL     -0.292959
     90 C31        -5.7700   -2.2190   -3.8540 c3        1 MOL     -0.087521
     91 H36        -1.3310   -4.4260   -2.3990 hn        1 MOL      0.304200
     92 H37        -2.2690   -1.7880   -1.5410 h1        1 MOL      0.397653
     93 H38        -3.7070   -4.0210   -3.0920 hc        1 MOL     -0.000419
     94 H39        -4.5280   -1.1440   -2.5210 hc        1 MOL      0.010503
     95 H40        -5.3280   -2.6360   -1.8160 hc        1 MOL      0.010503
     96 H41        -2.5640   -1.2340   -3.9360 hc        1 MOL      0.068849
     97 H42        -1.7360   -2.7260   -4.2930 hc        1 MOL      0.068849
     98 H43        -3.3570   -2.4110   -4.9190 hc        1 MOL      0.068849
     99 H44        -5.7490   -3.2290   -4.2670 hc        1 MOL      0.001872
    100 H45        -6.7790   -1.9200   -3.5780 hc        1 MOL      0.001872
    101 H46        -5.4040   -1.5640   -4.6560 hc        1 MOL      0.001872
    102 N10        -3.7660   -2.2650    0.4230 n         1 MOL     -0.432647
    103 C32        -4.3530   -2.5120    1.6940 c3        1 MOL     -0.062016
    104 C33        -5.3340   -1.3490    2.1110 c         1 MOL      0.414483
    105 O16        -5.8180   -1.2130    3.2400 o         1 MOL     -0.530999
    106 C34        -3.2690   -2.7250    2.7370 c3        1 MOL      0.116229
    107 C35        -2.2210   -1.5910    2.7350 c         1 MOL      0.622818
    108 O17        -1.1700   -1.7290    2.0720 o         1 MOL     -0.685794
    109 O18        -2.4620   -0.5100    3.3430 o         1 MOL     -0.685794
    110 H47        -3.4230   -1.3670    0.1180 hn        1 MOL     -0.036331
    111 H48        -4.9430   -3.4280    1.6630 h1        1 MOL      0.109494
    112 H49        -2.7020   -3.6330    2.5250 hc        1 MOL     -0.037991
    113 H50        -3.6610   -2.8160    3.7440 hc        1 MOL     -0.037991
    114 N11        -5.6500   -0.5550    1.1250 n         1 MOL     -0.071937
    115 C36        -6.7480    0.3980    1.1970 c3        1 MOL      0.191997
    116 C37        -6.3110    1.8310    0.6010 c         1 MOL      0.317241
    117 O19        -6.6980    2.2240   -0.4700 o         1 MOL     -0.505428
    118 C38        -7.8900   -0.2330    0.3880 c3        1 MOL     -0.386683
    119 C39        -8.6110   -1.3670    1.0670 ca        1 MOL      0.218452
    120 C40        -8.5090   -2.6840    0.5910 ca        1 MOL     -0.218619
    121 C41        -9.4580   -1.1550    2.1450 ca        1 MOL     -0.218619
    122 C42        -9.2820   -3.7790    1.0790 ca        1 MOL     -0.023131
    123 C43       -10.3250   -2.1800    2.5720 ca        1 MOL     -0.023131
    124 C44       -10.2810   -3.4770    2.0270 ca        1 MOL     -0.275385
    125 H51        -5.0050   -0.5200    0.3380 hn        1 MOL      0.066735
    126 H52        -7.0690    0.4610    2.2290 h1        1 MOL      0.044152
    127 H53        -7.5040   -0.5630   -0.5690 hc        1 MOL      0.113588
    128 H54        -8.6970    0.4840    0.2200 hc        1 MOL      0.113588
    129 H55        -7.7650   -2.8930   -0.1700 ha        1 MOL      0.120113
    130 H56        -9.6370   -0.2040    2.6150 ha        1 MOL      0.120113
    131 H57        -9.1490   -4.7920    0.7220 ha        1 MOL      0.085910
    132 H58       -11.0510   -1.8810    3.3090 ha        1 MOL      0.085910
    133 H59       -10.8360   -4.2410    2.5500 ha        1 MOL      0.134209
    134 N12        -5.3290    2.4970    1.2800 n         1 MOL     -0.088665
    135 C45        -4.8420    3.7960    0.8910 c3        1 MOL     -0.020786
    136 C46        -4.4510    3.9780   -0.5800 c         1 MOL      0.257287
    137 O20        -4.5280    5.0460   -1.1830 o         1 MOL     -0.517878
    138 C47        -3.6920    4.1480    1.8510 c3        1 MOL     -0.107679
    139 C48        -4.1020    3.3500    3.0940 c3        1 MOL     -0.125821
    140 C49        -4.6450    2.0750    2.4930 c3        1 MOL     -0.227085
    141 H60        -5.7140    4.4220    1.0590 h1        1 MOL      0.083447
    142 H61        -2.7180    3.7680    1.5510 hc        1 MOL      0.075424
    143 H62        -3.6250    5.2190    2.0360 hc        1 MOL      0.075424
    144 H63        -3.3200    3.2050    3.8290 hc        1 MOL      0.073147
    145 H64        -4.8410    4.0070    3.5420 hc        1 MOL      0.073147
    146 H65        -3.8020    1.4480    2.2200 h1        1 MOL      0.164272
    147 H66        -5.3650    1.6290    3.1820 h1        1 MOL      0.164272
    148 N13        -3.9990    2.9430   -1.2940 n         1 MOL      0.115270
    149 C50        -3.6340    2.9480   -2.7150 c3        1 MOL     -0.242176
    150 C51        -4.8870    3.3080   -3.5460 c         1 MOL      0.477434
    151 O21        -4.9320    4.3510   -4.2810 o         1 MOL     -0.565306
    152 C52        -2.9550    1.6110   -3.0740 c3        1 MOL     -0.022998
    153 C53        -1.7810    1.2270   -2.2190 c3        1 MOL      0.075862
    154 C54        -2.0600    0.7680   -0.7980 c         1 MOL      0.047940
    155 O22        -1.1180    0.6010    0.0270 o         1 MOL     -0.360477
    156 O23        -3.2000    0.3820   -0.5090 o         1 MOL     -0.360477
    157 H67        -3.9850    2.1090   -0.7170 hn        1 MOL      0.164859
    158 H68        -2.8710    3.7170   -2.8740 h1        1 MOL      0.116373
    159 H69        -2.6110    1.5450   -4.1100 hc        1 MOL      0.005494
    160 H70        -3.6890    0.8100   -2.9420 hc        1 MOL      0.005494
    161 H71        -1.0820    2.0570   -2.1250 hc        1 MOL      0.015052
    162 H72        -1.3070    0.3950   -2.7470 hc        1 MOL      0.015052
    163 N14        -5.8720    2.4800   -3.4870 n         1 MOL     -0.138017
    164 C55        -7.0600    2.6710   -4.3120 c3        1 MOL     -0.196184
    165 H73        -7.9440    2.3650   -3.7530 h1        1 MOL      0.082160
    166 H74        -7.1490    3.7230   -4.5840 h1        1 MOL      0.082160
    167 H75        -6.9760    2.0680   -5.2160 h1        1 MOL      0.082160
    168 H76        -5.7760    1.6590   -2.9030 hn        1 MOL      0.231897
    169 Ca1         0.8180   -0.4410    1.2260 Ca        1 MOL      1.507061
    170 O24         1.4250    2.2020    0.2110 oh        1 MOL     -0.798703
    171 H77         2.2210    2.3980   -0.2910 ho        1 MOL      0.382184
    172 H78         1.2280    3.0230    0.6770 ho        1 MOL      0.382184
    173 O25         2.0440   -0.3110   -1.1010 oh        1 MOL     -0.798703
    174 H79         2.9680   -0.0360   -1.1040 ho        1 MOL      0.382184
    175 H80         1.5630    0.4660   -1.4000 ho        1 MOL      0.382184
    176 O26        -0.9870    1.7140    2.5080 oh        1 MOL     -0.798703
    177 H81        -0.9710    1.5270    1.5620 ho        1 MOL      0.382184
    178 H82        -1.5790    1.0640    2.8680 ho        1 MOL      0.382184
    179 O27         2.2510   -2.7630    1.5920 oh        1 MOL     -0.798703
    180 H83         2.7610   -2.9480    2.3830 ho        1 MOL      0.382184
    181 H84         1.7870   -3.5830    1.4140 ho        1 MOL      0.382184
@<TRIPOS>BOND
     1    1    2 1   
     2    1    4 1   
     3    1    5 1   
     4    1    6 1   
     5    2    3 2   
     6    2    7 1   
     7    7    8 1   
     8    7   15 1   
     9    8    9 1   
    10    8   11 1   
    11    8   16 1   
    12    9   10 2   
    13    9   19 1   
    14   11   12 1   
    15   11   17 1   
    16   11   18 1   
    17   12   13 1   
    18   12   14 1   
    19   19   20 1   
    20   19   24 1   
    21   20   21 1   
    22   20   23 1   
    23   20   25 1   
    24   21   22 2   
    25   21   29 1   
    26   23   26 1   
    27   23   27 1   
    28   23   28 1   
    29   29   30 1   
    30   29   37 1   
    31   30   31 1   
    32   30   33 1   
    33   30   38 1   
    34   31   32 2   
    35   31   41 1   
    36   33   34 1   
    37   33   39 1   
    38   33   40 1   
    39   34   35 1   
    40   34   36 1   
    41   41   42 1   
    42   41   45 1   
    43   42   43 1   
    44   42   46 1   
    45   42   47 1   
    46   43   44 2   
    47   43   48 1   
    48   48   49 1   
    49   48   56 1   
    50   49   50 1   
    51   49   52 1   
    52   49   57 1   
    53   50   51 2   
    54   50   62 1   
    55   52   53 1   
    56   52   58 1   
    57   52   59 1   
    58   53   54 1   
    59   53   55 2   
    60   54   60 1   
    61   54   61 1   
    62   62   63 1   
    63   62   66 1   
    64   63   64 1   
    65   63   67 1   
    66   63   68 1   
    67   64   65 2   
    68   64   69 1   
    69   69   70 1   
    70   69   76 1   
    71   70   71 1   
    72   70   73 1   
    73   70   77 1   
    74   71   72 2   
    75   71   83 1   
    76   73   74 1   
    77   73   75 1   
    78   73   78 1   
    79   74   80 1   
    80   74   81 1   
    81   74   82 1   
    82   75   79 1   
    83   83   84 1   
    84   83   91 1   
    85   84   85 1   
    86   84   87 1   
    87   84   92 1   
    88   85   86 2   
    89   85  102 1   
    90   87   88 1   
    91   87   89 1   
    92   87   93 1   
    93   88   90 1   
    94   88   94 1   
    95   88   95 1   
    96   89   96 1   
    97   89   97 1   
    98   89   98 1   
    99   90   99 1   
   100   90  100 1   
   101   90  101 1   
   102  102  103 1   
   103  102  110 1   
   104  103  104 1   
   105  103  106 1   
   106  103  111 1   
   107  104  105 2   
   108  104  114 1   
   109  106  107 1   
   110  106  112 1   
   111  106  113 1   
   112  107  108 1   
   113  107  109 1   
   114  114  115 1   
   115  114  125 1   
   116  115  116 1   
   117  115  118 1   
   118  115  126 1   
   119  116  117 2   
   120  116  134 1   
   121  118  119 1   
   122  118  127 1   
   123  118  128 1   
   124  119  120 ar  
   125  119  121 ar  
   126  120  122 ar  
   127  120  129 1   
   128  121  123 ar  
   129  121  130 1   
   130  122  124 ar  
   131  122  131 1   
   132  123  124 ar  
   133  123  132 1   
   134  124  133 1   
   135  134  135 1   
   136  134  140 1   
   137  135  136 1   
   138  135  138 1   
   139  135  141 1   
   140  136  137 2   
   141  136  148 1   
   142  138  139 1   
   143  138  142 1   
   144  138  143 1   
   145  139  140 1   
   146  139  144 1   
   147  139  145 1   
   148  140  146 1   
   149  140  147 1   
   150  148  149 1   
   151  148  157 1   
   152  149  150 1   
   153  149  152 1   
   154  149  158 1   
   155  150  151 2   
   156  150  163 1   
   157  152  153 1   
   158  152  159 1   
   159  152  160 1   
   160  153  154 1   
   161  153  161 1   
   162  153  162 1   
   163  154  155 1   
   164  154  156 1   
   165  163  164 1   
   166  163  168 1   
   167  164  165 1   
   168  164  166 1   
   169  164  167 1   
   170  170  171 1   
   171  170  172 1   
   172  173  174 1   
   173  173  175 1   
   174  176  177 1   
   175  176  178 1   
   176  179  180 1   
   177  179  181 1   
@<TRIPOS>SUBSTRUCTURE
     1 MOL         1 TEMP              0 ****  ****    0 ROOT
