@<TRIPOS>MOLECULE
MOL
  182   178     1     0     0
SMALL
resp


@<TRIPOS>ATOM
      1 C1          2.0540   -4.7520    6.2820 c3        1 MOL     -0.389390
      2 C2          1.9380   -4.3760    4.8060 c         1 MOL      0.687850
      3 O1          1.0700   -4.9340    4.1280 o         1 MOL     -0.563840
      4 H1          2.2660   -5.8180    6.3700 hc        1 MOL      0.105786
      5 H2          2.8640   -4.1830    6.7400 hc        1 MOL      0.105786
      6 H3          1.1180   -4.5260    6.7910 hc        1 MOL      0.105786
      7 N1          2.8760   -3.6280    4.2910 n         1 MOL     -0.456280
      8 C3          2.9560   -3.1990    2.8990 c3        1 MOL     -0.239997
      9 C4          3.5050   -4.3450    1.9900 c         1 MOL      0.577542
     10 O2          4.1880   -5.2720    2.3900 o         1 MOL     -0.519591
     11 C5          3.8220   -1.9270    2.8530 c3        1 MOL      0.142105
     12 C6          3.7170   -1.0470    1.6730 c         1 MOL      0.521337
     13 O3          3.8370    0.1970    1.8360 o         1 MOL     -0.694862
     14 O4          3.5760   -1.4620    0.5190 o         1 MOL     -0.694862
     15 H4          3.5790   -3.1490    4.8390 hn        1 MOL      0.289730
     16 H5          1.9640   -2.9350    2.5240 h1        1 MOL      0.172394
     17 H6          4.8820   -2.1400    2.9710 hc        1 MOL      0.022711
     18 H7          3.7160   -1.2660    3.7140 hc        1 MOL      0.022711
     19 N2          3.1780   -4.1670    0.6750 n         1 MOL     -0.264401
     20 C7          3.3900   -5.1240   -0.4770 c3        1 MOL     -0.207998
     21 C8          4.5530   -4.6880   -1.3050 c         1 MOL      0.511725
     22 O5          5.2270   -5.6190   -1.8560 o         1 MOL     -0.564620
     23 C9          2.0420   -5.2030   -1.2280 c3        1 MOL      0.085002
     24 C10         1.9850   -6.2920   -2.3020 c3        1 MOL     -0.216207
     25 C11         0.6740   -6.3260   -3.0050 c3        1 MOL      0.106364
     26 C12         0.6110   -7.6340   -3.7840 c3        1 MOL     -0.031095
     27 N3         -0.4940   -7.5700   -4.7870 n4        1 MOL     -0.185161
     28 H8          2.5780   -3.3690    0.5360 hn        1 MOL      0.114099
     29 H9          3.5960   -6.0600    0.0540 h1        1 MOL      0.165944
     30 H10         1.8040   -4.2480   -1.6970 hc        1 MOL      0.054216
     31 H11         1.2900   -5.3220   -0.4530 hc        1 MOL      0.054216
     32 H12         2.0840   -7.2240   -1.7470 hc        1 MOL      0.075158
     33 H13         2.7440   -6.2140   -3.0690 hc        1 MOL      0.075158
     34 H14         0.6280   -5.4250   -3.6140 hc        1 MOL     -0.007728
     35 H15        -0.1080   -6.2970   -2.2450 hc        1 MOL     -0.007728
     36 H16         0.3950   -8.4360   -3.0790 hx        1 MOL      0.101885
     37 H17         1.5700   -7.7490   -4.2960 hx        1 MOL      0.101885
     38 H18        -1.3010   -7.0630   -4.4510 hn        1 MOL      0.264758
     39 H19        -0.1740   -7.0700   -5.6090 hn        1 MOL      0.264758
     40 H20        -0.8180   -8.4840   -5.0870 hn        1 MOL      0.264758
     41 N4          4.8610   -3.3700   -1.3790 n         1 MOL     -0.304929
     42 C13         6.0930   -2.8620   -1.9930 c3        1 MOL     -0.002526
     43 C14         6.9970   -1.9870   -1.0970 c         1 MOL      0.367457
     44 O6          8.1520   -1.7310   -1.3410 o         1 MOL     -0.519454
     45 C15         5.6340   -2.0360   -3.2520 c3        1 MOL     -0.383009
     46 C16         4.5550   -0.9360   -3.0030 c         1 MOL      0.595248
     47 O7          4.4700   -0.3870   -1.9040 o         1 MOL     -0.708333
     48 O8          3.6450   -0.7490   -3.8340 o         1 MOL     -0.708333
     49 H21         4.2720   -2.7220   -0.8690 hn        1 MOL      0.434114
     50 H22         6.7450   -3.6680   -2.3080 h1        1 MOL      0.126633
     51 H23         5.2920   -2.7820   -3.9670 hc        1 MOL      0.133372
     52 H24         6.4680   -1.5830   -3.7850 hc        1 MOL      0.133372
     53 N5          6.4630   -1.4150   -0.0400 n         1 MOL      0.072415
     54 C17         7.0340   -0.5130    0.9400 c3        1 MOL     -0.289263
     55 C18         6.8980    0.9710    0.6160 c         1 MOL      0.612282
     56 O9          7.3340    1.8440    1.4330 o         1 MOL     -0.570436
     57 H25         5.5300   -1.7560    0.1350 hn        1 MOL     -0.095029
     58 H26         8.1080   -0.6880    1.0570 h1        1 MOL      0.138345
     59 H27         6.5980   -0.6250    1.9350 h1        1 MOL      0.138345
     60 N6          6.3300    1.4400   -0.5550 n         1 MOL     -0.302889
     61 C19         6.3160    2.8820   -0.9750 c3        1 MOL      0.000035
     62 C20         5.0180    3.6100   -0.6680 c         1 MOL      0.674223
     63 O10         3.9790    2.9310   -0.5100 o         1 MOL     -0.559386
     64 C21         6.5730    2.9760   -2.5300 c3        1 MOL     -0.327461
     65 C22         7.5920    2.0550   -3.0210 c         1 MOL      0.618972
     66 N7          7.1760    1.0600   -3.7570 n         1 MOL     -0.613381
     67 O11         8.7740    2.1170   -2.8170 o         1 MOL     -0.515262
     68 H28         5.9510    0.7310   -1.1750 hn        1 MOL      0.265874
     69 H29         7.0810    3.4590   -0.4490 h1        1 MOL      0.090927
     70 H30         6.8550    3.9520   -2.9330 hc        1 MOL      0.081209
     71 H31         5.6340    2.8220   -3.0690 hc        1 MOL      0.081209
     72 H32         6.2000    1.0220   -4.0160 hn        1 MOL      0.306306
     73 H33         7.7490    0.5950   -4.4550 hn        1 MOL      0.306306
     74 N8          5.1260    4.9460   -0.5230 n         1 MOL     -0.578741
     75 C23         3.9430    5.8330   -0.2940 c3        1 MOL      0.124006
     76 C24         2.9250    5.3740    0.7580 c         1 MOL      0.472016
     77 O12         3.3410    4.9700    1.8560 o         1 MOL     -0.477675
     78 H34         5.9870    5.4420   -0.6690 hn        1 MOL      0.353274
     79 H35         3.4870    6.2200   -1.2070 h1        1 MOL      0.043066
     80 H36         4.2660    6.7840    0.1360 h1        1 MOL      0.043066
     81 N9          1.6160    5.3990    0.4540 n         1 MOL     -0.537435
     82 C25         0.4530    4.8820    1.1390 c3        1 MOL      0.287873
     83 C26         0.6970    3.3640    1.4960 c         1 MOL      0.605308
     84 O13         1.5550    2.7300    0.8370 o         1 MOL     -0.515755
     85 C27        -0.9220    5.0890    0.4990 c3        1 MOL     -0.215651
     86 C28        -1.1150    6.4850   -0.1090 ca        1 MOL      0.197910
     87 C29        -1.2720    6.6390   -1.5400 ca        1 MOL     -0.231125
     88 C30        -1.1650    7.5690    0.7460 ca        1 MOL     -0.231125
     89 C31        -1.4190    7.9380   -2.0660 ca        1 MOL     -0.201353
     90 C32        -1.3770    8.8610    0.2750 ca        1 MOL     -0.201353
     91 C33        -1.4940    9.0420   -1.1420 ca        1 MOL      0.247511
     92 O14        -1.8660   10.2930   -1.6510 oh        1 MOL     -0.429038
     93 H37         1.4590    5.6900   -0.5070 hn        1 MOL      0.240418
     94 H38         0.3740    5.4560    2.0600 h1        1 MOL      0.023710
     95 H39        -1.6550    4.7980    1.2560 hc        1 MOL      0.042159
     96 H40        -0.9450    4.3870   -0.3280 hc        1 MOL      0.042159
     97 H41        -1.3090    5.7940   -2.2090 ha        1 MOL      0.158831
     98 H42        -1.1130    7.4130    1.8140 ha        1 MOL      0.158831
     99 H43        -1.4620    8.0600   -3.1410 ha        1 MOL      0.163254
    100 H44        -1.4400    9.6780    0.9740 ha        1 MOL      0.163254
    101 H45        -1.6560   10.2310   -2.5820 ho        1 MOL      0.333120
    102 N10        -0.0450    2.8380    2.5230 n         1 MOL     -0.825100
    103 C34        -0.1040    1.4020    3.0600 c3        1 MOL      0.503533
    104 C35        -0.2390    0.2840    2.0230 c         1 MOL      0.073235
    105 O15         0.6670    0.0230    1.2530 o         1 MOL     -0.107053
    106 C36         1.0660    1.1460    4.0410 c3        1 MOL      0.128204
    107 C37         1.0600   -0.2740    4.6520 c3        1 MOL     -0.339499
    108 C38         1.0860    2.3020    5.0530 c3        1 MOL     -0.163585
    109 C39         0.0650   -0.4940    5.7790 c3        1 MOL     -0.176266
    110 H46        -0.7060    3.5170    2.8640 hn        1 MOL      0.349726
    111 H47        -1.0240    1.3780    3.6340 h1        1 MOL     -0.008497
    112 H48         1.9670    1.2190    3.4290 hc        1 MOL      0.031267
    113 H49         2.0310   -0.4550    5.1050 hc        1 MOL      0.123444
    114 H50         1.0370   -0.9760    3.8250 hc        1 MOL      0.123444
    115 H51         1.7670    2.0830    5.8750 hc        1 MOL      0.050947
    116 H52         1.3170    3.2320    4.5310 hc        1 MOL      0.050947
    117 H53         0.1120    2.5320    5.5060 hc        1 MOL      0.050947
    118 H54         0.0960   -1.5250    6.1460 hc        1 MOL      0.053948
    119 H55         0.2710    0.1490    6.6340 hc        1 MOL      0.053948
    120 H56        -0.9180   -0.2610    5.3660 hc        1 MOL      0.053948
    121 N11        -1.3810   -0.4530    2.1020 n         1 MOL     -0.413793
    122 C40        -1.7380   -1.4120    1.0320 c3        1 MOL     -0.089374
    123 C41        -3.2330   -1.6820    1.0520 c         1 MOL      0.679194
    124 O16        -3.7150   -2.7760    1.0440 o         1 MOL     -0.546599
    125 C42        -0.9210   -2.7500    1.2130 c3        1 MOL      0.155592
    126 O17         0.3030   -2.7190    0.5420 oh        1 MOL     -0.601436
    127 H57        -2.1740    0.0570    2.4650 hn        1 MOL      0.305052
    128 H58        -1.4740   -1.0610    0.0400 h1        1 MOL      0.065745
    129 H59        -1.5090   -3.5770    0.7950 h1        1 MOL      0.055437
    130 H60        -0.6950   -3.0530    2.2320 h1        1 MOL      0.055437
    131 H61         0.5130   -1.9060    0.0870 ho        1 MOL      0.346034
    132 N12        -3.9850   -0.6980    0.6650 n         1 MOL     -0.609832
    133 C43        -5.3230   -0.8720    0.2210 c3        1 MOL      0.177188
    134 C44        -5.6160    0.1570   -0.9530 c         1 MOL      0.472422
    135 O18        -5.1400    1.2920   -1.1120 o         1 MOL     -0.554266
    136 C45        -6.2900   -0.5830    1.3830 c3        1 MOL     -0.095264
    137 H62        -3.6890    0.2540    0.8220 hn        1 MOL      0.256009
    138 H63        -5.4740   -1.8630   -0.1990 h1        1 MOL      0.100909
    139 H64        -5.9820    0.2130    2.0610 hc        1 MOL      0.047850
    140 H65        -7.2710   -0.3400    0.9690 hc        1 MOL      0.047850
    141 H66        -6.3420   -1.4730    2.0070 hc        1 MOL      0.047850
    142 N13        -6.6000   -0.0600   -1.8470 n         1 MOL     -0.533618
    143 C46        -7.6890   -1.0600   -1.8910 c3        1 MOL      0.374224
    144 C47        -9.0470   -0.3960   -2.2100 c         1 MOL      0.303905
    145 O19        -9.2030    0.4830   -3.0780 o         1 MOL     -0.512389
    146 C48        -7.2570   -2.1040   -2.9670 c3        1 MOL     -0.415406
    147 H67        -6.7220    0.7010   -2.5050 hn        1 MOL      0.318118
    148 H68        -7.7070   -1.5200   -0.9050 h1        1 MOL     -0.008889
    149 H69        -6.3040   -2.5460   -2.6930 hc        1 MOL      0.103900
    150 H70        -7.9870   -2.9070   -2.8370 hc        1 MOL      0.103900
    151 H71        -7.3550   -1.5740   -3.9190 hc        1 MOL      0.103900
    152 N14       -10.1390   -0.7640   -1.5420 n         1 MOL     -0.155542
    153 C49       -10.2000   -1.6050   -0.3220 c3        1 MOL     -0.191361
    154 C50        -9.9290   -0.8370    0.9530 c         1 MOL      0.585367
    155 O20        -9.3820   -1.4690    1.8610 o         1 MOL     -0.600495
    156 C51       -11.5500   -2.3780   -0.2010 c3        1 MOL     -0.113003
    157 C52       -12.7240   -1.4820    0.0770 c3        1 MOL     -0.031155
    158 C53       -13.0860   -0.4320   -1.0560 c         1 MOL      0.583494
    159 O21       -12.5960    0.7090   -0.9140 o         1 MOL     -0.627187
    160 O22       -13.7740   -0.8420   -2.0210 o         1 MOL     -0.627187
    161 H72       -10.9050   -0.1250   -1.6950 hn        1 MOL      0.232118
    162 H73        -9.4380   -2.3900   -0.3780 h1        1 MOL      0.079550
    163 H74       -11.5210   -3.1740    0.5540 hc        1 MOL      0.052858
    164 H75       -11.5970   -2.7420   -1.2230 hc        1 MOL      0.052858
    165 H76       -12.5560   -0.9710    1.0170 hc        1 MOL     -0.000996
    166 H77       -13.5840   -2.1250    0.2660 hc        1 MOL     -0.000996
    167 N15       -10.1290    0.4570    0.9140 n         1 MOL     -0.137623
    168 C54        -9.7110    1.5070    1.8190 c3        1 MOL     -0.317071
    169 H78       -10.1750    2.4480    1.5220 h1        1 MOL      0.118289
    170 H79       -10.0190    1.2560    2.8340 h1        1 MOL      0.118289
    171 H80        -8.6270    1.6090    1.7820 h1        1 MOL      0.118289
    172 H81       -10.7190    0.7860    0.1530 hn        1 MOL      0.167964
    173 Ca1         2.5330    0.7540   -0.6540 Ca        1 MOL      1.646079
    174 O23         0.2250    1.3950   -1.3870 oh        1 MOL     -0.813182
    175 H82        -0.3630    1.4680   -0.6410 ho        1 MOL      0.402074
    176 H83        -0.2970    0.9600   -2.0640 ho        1 MOL      0.402074
    177 O24         1.0300   -1.3900   -1.7070 oh        1 MOL     -0.813182
    178 H84         0.2670   -1.1820   -2.2440 ho        1 MOL      0.402074
    179 H85         1.5690   -1.9560   -2.2680 ho        1 MOL      0.402074
    180 O25         2.8140    2.1710   -3.0250 oh        1 MOL     -0.813182
    181 H86         3.3330    1.6500   -3.6380 ho        1 MOL      0.402074
    182 H87         1.9650    2.2740   -3.4450 ho        1 MOL      0.402074
@<TRIPOS>BOND
     1    1    2 1   
     2    1    4 1   
     3    1    5 1   
     4    1    6 1   
     5    2    3 2   
     6    2    7 1   
     7    7    8 1   
     8    7   15 1   
     9    8    9 1   
    10    8   11 1   
    11    8   16 1   
    12    9   10 2   
    13    9   19 1   
    14   11   12 1   
    15   11   17 1   
    16   11   18 1   
    17   12   13 1   
    18   12   14 1   
    19   19   20 1   
    20   19   28 1   
    21   20   21 1   
    22   20   23 1   
    23   20   29 1   
    24   21   22 2   
    25   21   41 1   
    26   23   24 1   
    27   23   30 1   
    28   23   31 1   
    29   24   25 1   
    30   24   32 1   
    31   24   33 1   
    32   25   26 1   
    33   25   34 1   
    34   25   35 1   
    35   26   27 1   
    36   26   36 1   
    37   26   37 1   
    38   27   38 1   
    39   27   39 1   
    40   27   40 1   
    41   41   42 1   
    42   41   49 1   
    43   42   43 1   
    44   42   45 1   
    45   42   50 1   
    46   43   44 2   
    47   43   53 1   
    48   45   46 1   
    49   45   51 1   
    50   45   52 1   
    51   46   47 1   
    52   46   48 1   
    53   53   54 1   
    54   53   57 1   
    55   54   55 1   
    56   54   58 1   
    57   54   59 1   
    58   55   56 2   
    59   55   60 1   
    60   60   61 1   
    61   60   68 1   
    62   61   62 1   
    63   61   64 1   
    64   61   69 1   
    65   62   63 2   
    66   62   74 1   
    67   64   65 1   
    68   64   70 1   
    69   64   71 1   
    70   65   66 1   
    71   65   67 2   
    72   66   72 1   
    73   66   73 1   
    74   74   75 1   
    75   74   78 1   
    76   75   76 1   
    77   75   79 1   
    78   75   80 1   
    79   76   77 2   
    80   76   81 1   
    81   81   82 1   
    82   81   93 1   
    83   82   83 1   
    84   82   85 1   
    85   82   94 1   
    86   83   84 2   
    87   83  102 1   
    88   85   86 1   
    89   85   95 1   
    90   85   96 1   
    91   86   87 ar  
    92   86   88 ar  
    93   87   89 ar  
    94   87   97 1   
    95   88   90 ar  
    96   88   98 1   
    97   89   91 ar  
    98   89   99 1   
    99   90   91 ar  
   100   90  100 1   
   101   91   92 1   
   102   92  101 1   
   103  102  103 1   
   104  102  110 1   
   105  103  104 1   
   106  103  106 1   
   107  103  111 1   
   108  104  105 2   
   109  104  121 1   
   110  106  107 1   
   111  106  108 1   
   112  106  112 1   
   113  107  109 1   
   114  107  113 1   
   115  107  114 1   
   116  108  115 1   
   117  108  116 1   
   118  108  117 1   
   119  109  118 1   
   120  109  119 1   
   121  109  120 1   
   122  121  122 1   
   123  121  127 1   
   124  122  123 1   
   125  122  125 1   
   126  122  128 1   
   127  123  124 2   
   128  123  132 1   
   129  125  126 1   
   130  125  129 1   
   131  125  130 1   
   132  126  131 1   
   133  132  133 1   
   134  132  137 1   
   135  133  134 1   
   136  133  136 1   
   137  133  138 1   
   138  134  135 2   
   139  134  142 1   
   140  136  139 1   
   141  136  140 1   
   142  136  141 1   
   143  142  143 1   
   144  142  147 1   
   145  143  144 1   
   146  143  146 1   
   147  143  148 1   
   148  144  145 2   
   149  144  152 1   
   150  146  149 1   
   151  146  150 1   
   152  146  151 1   
   153  152  153 1   
   154  152  161 1   
   155  153  154 1   
   156  153  156 1   
   157  153  162 1   
   158  154  155 2   
   159  154  167 1   
   160  156  157 1   
   161  156  163 1   
   162  156  164 1   
   163  157  158 1   
   164  157  165 1   
   165  157  166 1   
   166  158  159 1   
   167  158  160 1   
   168  167  168 1   
   169  167  172 1   
   170  168  169 1   
   171  168  170 1   
   172  168  171 1   
   173  174  175 1   
   174  174  176 1   
   175  177  178 1   
   176  177  179 1   
   177  180  181 1   
   178  180  182 1   
@<TRIPOS>SUBSTRUCTURE
     1 MOL         1 TEMP              0 ****  ****    0 ROOT
