@<TRIPOS>MOLECULE
MOL
  185   180     1     0     0
SMALL
resp


@<TRIPOS>ATOM
      1 C1          5.3080   -0.4430    6.0170 c3        1 MOL     -0.457258
      2 C2          4.7920   -0.1260    4.6060 c         1 MOL      0.739502
      3 O1          3.5810   -0.0730    4.4490 o         1 MOL     -0.622968
      4 H1          4.7280    0.1180    6.7490 hc        1 MOL      0.113610
      5 H2          5.2020   -1.5110    6.2120 hc        1 MOL      0.113610
      6 H3          6.3570   -0.1620    6.0910 hc        1 MOL      0.113610
      7 N1          5.6720    0.0150    3.5980 n         1 MOL     -0.496809
      8 C3          5.3290    0.4310    2.2440 c3        1 MOL      0.037646
      9 C4          4.6470   -0.7180    1.5190 c         1 MOL      0.636845
     10 O2          3.6600   -0.5510    0.8510 o         1 MOL     -0.672615
     11 C5          6.6680    0.7670    1.5210 c3        1 MOL     -0.143038
     12 C6          7.8410   -0.1050    1.9350 c         1 MOL      0.698737
     13 O3          8.5920    0.4100    2.7790 o         1 MOL     -0.676896
     14 O4          8.0870   -1.2460    1.4180 o         1 MOL     -0.676896
     15 H4          6.6390    0.0350    3.8930 hn        1 MOL      0.246016
     16 H5          4.6240    1.2620    2.1230 h1        1 MOL      0.080561
     17 H6          6.8920    1.8270    1.6470 hc        1 MOL      0.054656
     18 H7          6.5170    0.6190    0.4470 hc        1 MOL      0.054656
     19 N2          5.1480   -1.9460    1.6180 n         1 MOL     -0.417031
     20 C7          4.5640   -3.1690    1.0580 c3        1 MOL     -0.054381
     21 C8          4.6920   -3.1490   -0.4500 c         1 MOL      0.493037
     22 O5          5.7980   -3.0350   -1.0030 o         1 MOL     -0.485224
     23 C9          5.1330   -4.4290    1.7060 c3        1 MOL     -0.108838
     24 C10         4.6940   -4.7060    3.1800 c3        1 MOL      0.152027
     25 C11         5.3220   -5.9410    3.8870 c3        1 MOL     -0.118788
     26 C12         5.0410   -5.9140    5.4090 c3        1 MOL      0.105925
     27 N3          5.6430   -7.0890    6.0290 n4        1 MOL     -0.245386
     28 H8          6.0450   -2.0920    2.0750 hn        1 MOL      0.246010
     29 H9          3.4930   -3.1520    1.2930 h1        1 MOL      0.156944
     30 H10         6.2220   -4.3240    1.7530 hc        1 MOL      0.061020
     31 H11         4.9440   -5.2850    1.0640 hc        1 MOL      0.061020
     32 H12         3.6120   -4.8070    3.0730 hc        1 MOL     -0.027486
     33 H13         4.7970   -3.8030    3.7840 hc        1 MOL     -0.027486
     34 H14         6.4110   -5.9040    3.7910 hc        1 MOL      0.047055
     35 H15         4.9730   -6.8120    3.3360 hc        1 MOL      0.047055
     36 H16         3.9720   -5.9760    5.5820 hx        1 MOL      0.060450
     37 H17         5.3940   -4.9920    5.8810 hx        1 MOL      0.060450
     38 H18         6.5930   -6.8660    6.2840 hn        1 MOL      0.278779
     39 H19         5.2610   -7.3690    6.9210 hn        1 MOL      0.278779
     40 H20         5.6470   -7.8230    5.3450 hn        1 MOL      0.278779
     41 N4          3.5740   -3.3650   -1.1680 n         1 MOL     -0.169990
     42 C13         3.4110   -3.4570   -2.5990 c3        1 MOL     -0.226719
     43 C14         3.8490   -2.1920   -3.4350 c         1 MOL      0.578715
     44 O6          3.6770   -1.1120   -2.8630 o         1 MOL     -0.435601
     45 C15         2.0180   -3.9140   -2.9640 c3        1 MOL      0.025427
     46 C16         0.8860   -3.1180   -2.2910 c         1 MOL      0.602019
     47 O7          0.1910   -2.3350   -2.9530 o         1 MOL     -0.677425
     48 O8          0.6790   -3.3630   -1.1020 o         1 MOL     -0.677425
     49 H21         2.7580   -3.4610   -0.5730 hn        1 MOL      0.138833
     50 H22         4.0050   -4.2890   -2.9850 h1        1 MOL      0.072620
     51 H23         1.9020   -4.9840   -2.7740 hc        1 MOL      0.012510
     52 H24         1.8430   -3.7940   -4.0380 hc        1 MOL      0.012510
     53 N5          4.3080   -2.2790   -4.7060 n         1 MOL     -0.472095
     54 C17         4.9410   -1.0910   -5.2750 c3        1 MOL     -0.074482
     55 C18         6.3500   -0.7870   -4.7030 c         1 MOL      0.525044
     56 O9          7.3210   -1.5340   -4.8110 o         1 MOL     -0.536072
     57 H25         4.6160   -3.1840   -5.0460 hn        1 MOL      0.331114
     58 H26         4.2950   -0.2220   -5.1890 h1        1 MOL      0.093875
     59 H27         5.1930   -1.2710   -6.3200 h1        1 MOL      0.093875
     60 N6          6.5940    0.4040   -4.1370 n         1 MOL     -0.438265
     61 C19         5.6660    1.4960   -3.8120 c3        1 MOL      0.175619
     62 C20         6.1030    2.1320   -2.4450 c         1 MOL      0.454177
     63 O10         7.2640    2.4810   -2.2610 o         1 MOL     -0.541013
     64 C21         5.7700    2.5660   -4.9030 c3        1 MOL     -0.219376
     65 C22         5.0790    3.8650   -4.6180 c         1 MOL      0.660809
     66 N7          5.7700    4.9980   -4.7460 n         1 MOL     -0.808831
     67 O11         3.8880    3.8850   -4.3500 o         1 MOL     -0.565428
     68 H28         7.5820    0.6080   -4.0320 hn        1 MOL      0.303403
     69 H29         4.6320    1.1580   -3.7760 h1        1 MOL      0.037738
     70 H30         5.4930    2.1260   -5.8560 hc        1 MOL      0.053359
     71 H31         6.8520    2.7150   -4.9380 hc        1 MOL      0.053359
     72 H32         6.7590    4.9710   -4.9620 hn        1 MOL      0.380221
     73 H33         5.2380    5.8340   -4.5360 hn        1 MOL      0.380221
     74 N8          5.2320    2.4720   -1.5140 n         1 MOL     -0.309605
     75 C23         3.7890    2.1130   -1.4590 c3        1 MOL     -0.051697
     76 C24         3.0620    2.7100   -0.2130 c         1 MOL      0.609857
     77 O12         3.6040    3.6020    0.4340 o         1 MOL     -0.550720
     78 H34         5.6100    2.9680   -0.7230 hn        1 MOL      0.254411
     79 H35         3.7910    1.0190   -1.4220 h1        1 MOL      0.048229
     80 H36         3.1750    2.3870   -2.3200 h1        1 MOL      0.048229
     81 N9          1.7740    2.4790   -0.1560 n         1 MOL     -0.461131
     82 C25         0.8090    3.1560    0.7630 c3        1 MOL      0.002784
     83 C26        -0.4850    2.3780    0.9830 c         1 MOL      0.536260
     84 O13        -0.7030    1.2820    0.3910 o         1 MOL     -0.552080
     85 C27         0.4340    4.5720    0.1840 c3        1 MOL     -0.046880
     86 C28        -0.1730    5.6120    1.1030 ca        1 MOL      0.041471
     87 C29        -1.0110    6.5370    0.5230 ca        1 MOL     -0.169596
     88 C30         0.1920    5.6590    2.4780 ca        1 MOL     -0.169596
     89 C31        -1.7020    7.4630    1.3800 ca        1 MOL     -0.213398
     90 C32        -0.4650    6.6130    3.3220 ca        1 MOL     -0.213398
     91 C33        -1.4330    7.4750    2.7990 ca        1 MOL      0.309875
     92 O14        -2.0030    8.3340    3.6580 oh        1 MOL     -0.492056
     93 H37         1.3630    1.8800   -0.8510 hn        1 MOL      0.290346
     94 H38         1.2810    3.2590    1.7370 h1        1 MOL      0.090144
     95 H39        -0.0590    4.4040   -0.7660 hc        1 MOL      0.065560
     96 H40         1.3450    4.9840   -0.2440 hc        1 MOL      0.065560
     97 H41        -1.2460    6.5370   -0.5310 ha        1 MOL      0.154224
     98 H42         0.9240    4.9570    2.8500 ha        1 MOL      0.154224
     99 H43        -2.4590    8.1010    0.9500 ha        1 MOL      0.144608
    100 H44        -0.2510    6.7230    4.3740 ha        1 MOL      0.144608
    101 H45        -1.7310    8.1870    4.5680 ho        1 MOL      0.373855
    102 N10        -1.4240    3.0400    1.7000 n         1 MOL     -0.417222
    103 C34        -2.8370    2.4600    1.8930 c3        1 MOL     -0.086676
    104 C35        -3.7540    2.6410    0.6480 c         1 MOL      0.780068
    105 O15        -3.8150    3.6620    0.0220 o         1 MOL     -0.564437
    106 C36        -3.5150    2.9770    3.1690 c3        1 MOL      0.026709
    107 C37        -3.0160    2.3660    4.4690 c3        1 MOL      0.134786
    108 C38        -3.3000    4.4990    3.3060 c3        1 MOL     -0.046805
    109 C39        -3.8350    2.6540    5.7570 c3        1 MOL     -0.324952
    110 H46        -1.2000    3.9750    2.0210 hn        1 MOL      0.193346
    111 H47        -2.8330    1.3780    1.9230 h1        1 MOL      0.070751
    112 H48        -4.5480    2.7260    2.9580 hc        1 MOL      0.030738
    113 H49        -1.9860    2.6670    4.6510 hc        1 MOL     -0.001682
    114 H50        -2.9170    1.2830    4.3940 hc        1 MOL     -0.001682
    115 H51        -3.3700    4.9530    2.3210 hc        1 MOL      0.011879
    116 H52        -4.0390    4.9250    3.9780 hc        1 MOL      0.011879
    117 H53        -2.2610    4.6990    3.5850 hc        1 MOL      0.011879
    118 H54        -3.4890    1.9870    6.5470 hc        1 MOL      0.081158
    119 H55        -3.4630    3.6390    6.0180 hc        1 MOL      0.081158
    120 H56        -4.9070    2.5180    5.5780 hc        1 MOL      0.081158
    121 N11        -4.6430    1.6890    0.3200 n         1 MOL     -0.722429
    122 C40        -5.7820    1.9350   -0.5740 c3        1 MOL      0.346540
    123 C41        -5.7130    0.9370   -1.7750 c         1 MOL      0.332573
    124 O16        -4.9710   -0.0520   -1.7590 o         1 MOL     -0.337214
    125 C42        -7.1690    1.8370    0.1620 c3        1 MOL     -0.061542
    126 O17        -7.2390    0.4690    0.6440 oh        1 MOL     -0.345444
    127 H57        -4.7070    0.8100    0.8200 hn        1 MOL      0.307956
    128 H58        -5.8620    2.9780   -0.9140 h1        1 MOL      0.022146
    129 H59        -8.0080    2.1330   -0.4630 h1        1 MOL      0.063984
    130 H60        -7.1410    2.4400    1.0800 h1        1 MOL      0.063984
    131 H61        -8.1060    0.2760    1.0070 ho        1 MOL      0.341200
    132 N12        -6.5310    1.1530   -2.8260 n         1 MOL     -0.429952
    133 C43        -6.8140    0.1340   -3.8930 c3        1 MOL      0.076358
    134 C44        -7.4700   -1.1190   -3.3420 c         1 MOL      0.476996
    135 O18        -7.0760   -2.2670   -3.5820 o         1 MOL     -0.456728
    136 C45        -5.6430   -0.1040   -4.8720 c3        1 MOL     -0.239606
    137 H62        -7.0380    2.0300   -2.8320 hn        1 MOL      0.278682
    138 H63        -7.5420    0.7050   -4.4870 h1        1 MOL      0.079111
    139 H64        -4.9100   -0.8460   -4.5520 hc        1 MOL      0.084654
    140 H65        -6.0070   -0.4590   -5.8430 hc        1 MOL      0.084654
    141 H66        -5.1820    0.8590   -5.1060 hc        1 MOL      0.084654
    142 N13        -8.5230   -0.8980   -2.5450 n         1 MOL     -0.629066
    143 C46        -9.3170   -1.8940   -1.8290 c3        1 MOL      0.579919
    144 C47        -8.6210   -2.8770   -0.8910 c         1 MOL      0.163400
    145 O19        -9.1220   -3.9340   -0.7130 o         1 MOL     -0.442039
    146 C48       -10.4860   -2.4060   -2.6990 c3        1 MOL     -0.408783
    147 H67        -8.7840    0.0710   -2.4370 hn        1 MOL      0.294471
    148 H68        -9.8720   -1.3090   -1.0960 h1        1 MOL     -0.054891
    149 H69       -11.1050   -3.2200   -2.3200 hc        1 MOL      0.105430
    150 H70       -11.0370   -1.5070   -2.9890 hc        1 MOL      0.105430
    151 H71       -10.0200   -2.8780   -3.5560 hc        1 MOL      0.105430
    152 N14        -7.4070   -2.5430   -0.4530 n         1 MOL      0.060433
    153 C49        -6.5740   -3.2720    0.5010 c3        1 MOL     -0.071836
    154 C50        -7.2730   -3.3150    1.8750 c         1 MOL      0.409628
    155 O20        -7.7090   -4.4120    2.2380 o         1 MOL     -0.498720
    156 C51        -5.2600   -2.4430    0.4700 c3        1 MOL     -0.031929
    157 C52        -4.1560   -3.2170    1.3150 c3        1 MOL     -0.100445
    158 C53        -2.8690   -2.5170    1.0430 c         1 MOL      0.591829
    159 O21        -2.7990   -1.2650    0.9120 o         1 MOL     -0.707764
    160 O22        -1.8380   -3.2780    0.7840 o         1 MOL     -0.707764
    161 H72        -7.1290   -1.6130   -0.7450 hn        1 MOL     -0.095139
    162 H73        -6.4490   -4.3000    0.1610 h1        1 MOL      0.121481
    163 H74        -5.4370   -1.4740    0.9500 hc        1 MOL      0.026050
    164 H75        -4.8620   -2.3220   -0.5480 hc        1 MOL      0.026050
    165 H76        -4.0190   -4.2680    1.0930 hc        1 MOL      0.044815
    166 H77        -4.3910   -3.2340    2.3800 hc        1 MOL      0.044815
    167 N15        -7.4460   -2.1540    2.5410 n         1 MOL     -0.126484
    168 C54        -8.0090   -2.1170    3.9150 c3        1 MOL     -0.169659
    169 H78        -8.5880   -1.2030    4.0450 h1        1 MOL      0.087857
    170 H79        -8.6560   -2.9820    4.0660 h1        1 MOL      0.087857
    171 H80        -7.1960   -2.1380    4.6420 h1        1 MOL      0.087857
    172 H81        -7.2400   -1.3610    1.9440 hn        1 MOL      0.055215
    173 Ca1        -0.8460   -1.2470   -0.6800 Ca        1 MOL      1.740554
    174 O23         0.4730   -1.0240    1.6830 oh        1 MOL     -0.846039
    175 H82         1.1680   -1.4580    2.1800 ho        1 MOL      0.416879
    176 H83         0.3410   -0.1930    2.1360 ho        1 MOL      0.416879
    177 O24         1.6890   -0.4890   -1.0040 oh        1 MOL     -0.846039
    178 H84         2.3260   -0.8210   -1.6390 ho        1 MOL      0.416879
    179 H85         2.1680   -0.4770   -0.1680 ho        1 MOL      0.416879
    180 O25        -3.0540   -1.7460   -2.3100 oh        1 MOL     -0.846039
    181 H86        -3.8350   -1.2140   -2.1270 ho        1 MOL      0.416879
    182 H87        -3.3890   -2.5020   -2.7890 ho        1 MOL      0.416879
    183 O26        -0.6670    0.6280   -2.5500 oh        1 MOL     -0.846039
    184 H88         0.1160    1.0350   -2.9060 ho        1 MOL      0.416879
    185 H89        -1.3810    1.2200   -2.7970 ho        1 MOL      0.416879
@<TRIPOS>BOND
     1    1    2 1   
     2    1    4 1   
     3    1    5 1   
     4    1    6 1   
     5    2    3 2   
     6    2    7 1   
     7    7    8 1   
     8    7   15 1   
     9    8    9 1   
    10    8   11 1   
    11    8   16 1   
    12    9   10 2   
    13    9   19 1   
    14   11   12 1   
    15   11   17 1   
    16   11   18 1   
    17   12   13 1   
    18   12   14 1   
    19   19   20 1   
    20   19   28 1   
    21   20   21 1   
    22   20   23 1   
    23   20   29 1   
    24   21   22 2   
    25   21   41 1   
    26   23   24 1   
    27   23   30 1   
    28   23   31 1   
    29   24   25 1   
    30   24   32 1   
    31   24   33 1   
    32   25   26 1   
    33   25   34 1   
    34   25   35 1   
    35   26   27 1   
    36   26   36 1   
    37   26   37 1   
    38   27   38 1   
    39   27   39 1   
    40   27   40 1   
    41   41   42 1   
    42   41   49 1   
    43   42   43 1   
    44   42   45 1   
    45   42   50 1   
    46   43   44 2   
    47   43   53 1   
    48   45   46 1   
    49   45   51 1   
    50   45   52 1   
    51   46   47 1   
    52   46   48 1   
    53   53   54 1   
    54   53   57 1   
    55   54   55 1   
    56   54   58 1   
    57   54   59 1   
    58   55   56 2   
    59   55   60 1   
    60   60   61 1   
    61   60   68 1   
    62   61   62 1   
    63   61   64 1   
    64   61   69 1   
    65   62   63 2   
    66   62   74 1   
    67   64   65 1   
    68   64   70 1   
    69   64   71 1   
    70   65   66 1   
    71   65   67 2   
    72   66   72 1   
    73   66   73 1   
    74   74   75 1   
    75   74   78 1   
    76   75   76 1   
    77   75   79 1   
    78   75   80 1   
    79   76   77 2   
    80   76   81 1   
    81   81   82 1   
    82   81   93 1   
    83   82   83 1   
    84   82   85 1   
    85   82   94 1   
    86   83   84 2   
    87   83  102 1   
    88   85   86 1   
    89   85   95 1   
    90   85   96 1   
    91   86   87 ar  
    92   86   88 ar  
    93   87   89 ar  
    94   87   97 1   
    95   88   90 ar  
    96   88   98 1   
    97   89   91 ar  
    98   89   99 1   
    99   90   91 ar  
   100   90  100 1   
   101   91   92 1   
   102   92  101 1   
   103  102  103 1   
   104  102  110 1   
   105  103  104 1   
   106  103  106 1   
   107  103  111 1   
   108  104  105 2   
   109  104  121 1   
   110  106  107 1   
   111  106  108 1   
   112  106  112 1   
   113  107  109 1   
   114  107  113 1   
   115  107  114 1   
   116  108  115 1   
   117  108  116 1   
   118  108  117 1   
   119  109  118 1   
   120  109  119 1   
   121  109  120 1   
   122  121  122 1   
   123  121  127 1   
   124  122  123 1   
   125  122  125 1   
   126  122  128 1   
   127  123  124 2   
   128  123  132 1   
   129  125  126 1   
   130  125  129 1   
   131  125  130 1   
   132  126  131 1   
   133  132  133 1   
   134  132  137 1   
   135  133  134 1   
   136  133  136 1   
   137  133  138 1   
   138  134  135 2   
   139  134  142 1   
   140  136  139 1   
   141  136  140 1   
   142  136  141 1   
   143  142  143 1   
   144  142  147 1   
   145  143  144 1   
   146  143  146 1   
   147  143  148 1   
   148  144  145 2   
   149  144  152 1   
   150  146  149 1   
   151  146  150 1   
   152  146  151 1   
   153  152  153 1   
   154  152  161 1   
   155  153  154 1   
   156  153  156 1   
   157  153  162 1   
   158  154  155 2   
   159  154  167 1   
   160  156  157 1   
   161  156  163 1   
   162  156  164 1   
   163  157  158 1   
   164  157  165 1   
   165  157  166 1   
   166  158  159 1   
   167  158  160 1   
   168  167  168 1   
   169  167  172 1   
   170  168  169 1   
   171  168  170 1   
   172  168  171 1   
   173  174  175 1   
   174  174  176 1   
   175  177  178 1   
   176  177  179 1   
   177  180  181 1   
   178  180  182 1   
   179  183  184 1   
   180  183  185 1   
@<TRIPOS>SUBSTRUCTURE
     1 MOL         1 TEMP              0 ****  ****    0 ROOT
