@<TRIPOS>MOLECULE
MOL
  189   185     1     0     0
SMALL
resp


@<TRIPOS>ATOM
      1 C1         -4.9270   -4.6690   -2.7350 c3        1 MOL     -0.328076
      2 C2         -5.4780   -3.4100   -1.9330 c         1 MOL      0.805433
      3 O1         -4.8770   -3.0610   -0.9210 o         1 MOL     -0.703089
      4 H1         -4.9120   -5.5390   -2.0790 hc        1 MOL      0.082221
      5 H2         -5.5750   -4.8690   -3.5890 hc        1 MOL      0.082221
      6 H3         -3.9160   -4.4630   -3.0870 hc        1 MOL      0.082221
      7 N1         -6.6010   -2.8590   -2.3710 n         1 MOL     -0.737910
      8 C3         -7.2600   -1.6810   -1.9120 c3        1 MOL      0.257238
      9 C4         -6.2130   -0.5160   -1.6270 c         1 MOL      0.046362
     10 O2         -5.8200   -0.3200   -0.5260 o         1 MOL     -0.313242
     11 C5         -8.2800   -1.9170   -0.7540 c3        1 MOL     -0.011379
     12 C6         -8.0320   -2.8540    0.4040 c         1 MOL      0.767907
     13 O3         -7.0810   -2.7200    1.2760 o         1 MOL     -0.743475
     14 O4         -8.7750   -3.8530    0.4760 o         1 MOL     -0.743475
     15 H4         -7.0210   -3.3020   -3.1740 hn        1 MOL      0.362650
     16 H5         -7.8930   -1.3920   -2.7520 h1        1 MOL      0.038908
     17 H6         -9.2170   -2.2220   -1.2250 hc        1 MOL     -0.021694
     18 H7         -8.5120   -0.9520   -0.2960 hc        1 MOL     -0.021694
     19 N2         -5.9390    0.1910   -2.7190 n         1 MOL     -0.339232
     20 C7         -4.9530    1.3070   -2.8750 c3        1 MOL      0.045337
     21 C8         -5.3440    2.6290   -2.0870 c         1 MOL      0.340321
     22 O5         -5.4380    3.7360   -2.5870 o         1 MOL     -0.519170
     23 C9         -3.5000    0.8330   -2.6100 c3        1 MOL      0.318104
     24 C10        -2.4090    1.8250   -2.8960 c3        1 MOL     -0.297986
     25 C11        -3.2250   -0.5630   -3.2360 c3        1 MOL     -0.041798
     26 C12        -2.5770    2.4870   -4.2140 c3        1 MOL     -0.279195
     27 H8         -6.4030   -0.0170   -3.5840 hn        1 MOL      0.278076
     28 H9         -4.9610    1.6350   -3.9250 h1        1 MOL      0.060551
     29 H10        -3.3800    0.6460   -1.5400 hc        1 MOL     -0.010254
     30 H11        -1.4490    1.3240   -2.7560 hc        1 MOL      0.156969
     31 H12        -2.4550    2.5920   -2.1200 hc        1 MOL      0.156969
     32 H13        -2.1630   -0.7760   -3.2870 hc        1 MOL     -0.024543
     33 H14        -3.6860   -1.4200   -2.7300 hc        1 MOL     -0.024543
     34 H15        -3.6360   -0.4740   -4.2420 hc        1 MOL     -0.024543
     35 H16        -3.5000    3.0760   -4.1510 hc        1 MOL      0.060759
     36 H17        -1.7040    3.1050   -4.4250 hc        1 MOL      0.060759
     37 H18        -2.8150    1.7530   -4.9810 hc        1 MOL      0.060759
     38 N3         -5.9300    2.4370   -0.8450 n         1 MOL     -0.066605
     39 C13        -6.8100    3.3810   -0.2020 c3        1 MOL     -0.036925
     40 C14        -6.1360    4.7430    0.1880 c         1 MOL      0.720703
     41 O6         -6.8230    5.7070    0.1610 o         1 MOL     -0.598208
     42 C15        -7.5030    2.6850    1.0060 c3        1 MOL     -0.289630
     43 C16        -8.4540    1.5770    0.6870 c         1 MOL      0.794126
     44 O7         -8.7360    0.8220    1.6340 o         1 MOL     -0.707823
     45 O8         -9.1000    1.5470   -0.3630 o         1 MOL     -0.707823
     46 H19        -5.8890    1.5140   -0.4460 hn        1 MOL      0.196660
     47 H20        -7.5570    3.6940   -0.9390 h1        1 MOL      0.048304
     48 H21        -8.0040    3.3500    1.7080 hc        1 MOL      0.092091
     49 H22        -6.6650    2.3050    1.5880 hc        1 MOL      0.092091
     50 N4         -4.8340    4.9530    0.5660 n         1 MOL     -0.732313
     51 C17        -3.9550    3.8880    1.0720 c3        1 MOL      0.222778
     52 C18        -4.4440    3.4580    2.4470 c         1 MOL      0.329518
     53 O9         -5.3580    3.9780    3.1150 o         1 MOL     -0.521570
     54 H23        -4.6460    5.8840    0.8930 hn        1 MOL      0.344698
     55 H24        -2.9540    4.3110    1.1590 h1        1 MOL      0.034801
     56 H25        -3.9080    3.0060    0.4310 h1        1 MOL      0.034801
     57 N5         -3.8540    2.4610    3.0480 n         1 MOL     -0.302891
     58 C19        -2.5770    1.8040    2.7110 c3        1 MOL      0.216964
     59 C20        -2.4640    1.0670    1.3260 c         1 MOL     -0.028441
     60 O10        -3.4860    0.5280    0.8860 o         1 MOL     -0.494745
     61 C21        -2.1140    0.8330    3.8620 c3        1 MOL     -0.166625
     62 C22        -3.1100   -0.2370    4.1910 c         1 MOL      0.621094
     63 O11        -3.8120   -0.1740    5.2240 o         1 MOL     -0.657976
     64 O12        -3.2900   -1.1770    3.3890 o         1 MOL     -0.657976
     65 H26        -4.0840    2.5480    4.0290 hn        1 MOL      0.283165
     66 H27        -1.8120    2.5670    2.7520 h1        1 MOL     -0.024715
     67 H28        -1.8840    1.4980    4.6820 hc        1 MOL      0.042870
     68 H29        -1.1810    0.3420    3.5990 hc        1 MOL      0.042870
     69 N6         -1.3100    0.8870    0.7500 n         1 MOL      0.014659
     70 C23         0.0300    1.4540    0.9230 c3        1 MOL     -0.084786
     71 C24         0.2360    2.7320    0.1560 c         1 MOL      0.537806
     72 O13        -0.6160    3.3750   -0.4520 o         1 MOL     -0.496793
     73 H30        -1.3990    0.2340   -0.0080 hn        1 MOL      0.070853
     74 H31         0.6970    0.6750    0.5640 h1        1 MOL      0.085250
     75 H32         0.2970    1.5790    1.9720 h1        1 MOL      0.085250
     76 N7          1.5300    3.1670    0.1940 n         1 MOL     -0.506766
     77 C25         1.9450    4.5060   -0.4670 c3        1 MOL     -0.002654
     78 C26         2.7520    4.2390   -1.7270 c         1 MOL      0.482302
     79 O14         2.9980    5.1760   -2.4500 o         1 MOL     -0.545561
     80 C27         2.7280    5.3590    0.5570 c3        1 MOL      0.070419
     81 C28         4.0160    4.6970    1.0130 c3        1 MOL      0.007137
     82 C29         4.7600    5.6750    1.9880 c         1 MOL      0.604949
     83 N8          4.2590    5.8750    3.1380 n         1 MOL     -0.791186
     84 O15         5.6610    6.4130    1.6060 o         1 MOL     -0.559147
     85 H33         2.1310    2.5730    0.7620 hn        1 MOL      0.273893
     86 H34         1.0950    5.0990   -0.7950 h1        1 MOL      0.126443
     87 H35         2.2200    5.4400    1.5160 hc        1 MOL      0.010137
     88 H36         2.8690    6.3530    0.1440 hc        1 MOL      0.010137
     89 H37         4.7040    4.4780    0.1900 hc        1 MOL     -0.037415
     90 H38         3.9220    3.7500    1.5480 hc        1 MOL     -0.037415
     91 H39         3.4120    5.4160    3.4420 hn        1 MOL      0.378686
     92 H40         4.7060    6.6000    3.6800 hn        1 MOL      0.378686
     93 N9          3.1680    3.0350   -1.9980 n         1 MOL     -0.069749
     94 C30         3.7370    2.6000   -3.2410 c3        1 MOL     -0.193720
     95 C31         5.2240    2.0820   -3.0510 c         1 MOL      0.502041
     96 O16         5.9710    2.0720   -4.0600 o         1 MOL     -0.540128
     97 C32         2.9440    1.5140   -4.0020 c3        1 MOL      0.170621
     98 C33         1.5820    2.0710   -4.5040 c3        1 MOL     -0.052529
     99 C34         2.6630    0.1790   -3.2650 c3        1 MOL     -0.052529
    100 H41         2.9080    2.3370   -1.3170 hn        1 MOL      0.107161
    101 H42         3.8250    3.4490   -3.9230 h1        1 MOL      0.131040
    102 H43         3.5770    1.1750   -4.8220 hc        1 MOL     -0.007567
    103 H44         1.6930    2.9390   -5.1510 hc        1 MOL      0.004855
    104 H45         1.2660    1.3020   -5.2080 hc        1 MOL      0.004855
    105 H46         0.8870    2.1620   -3.6680 hc        1 MOL      0.004855
    106 H47         2.1740   -0.5620   -3.9000 hc        1 MOL      0.004855
    107 H48         3.5630   -0.2370   -2.8070 hc        1 MOL      0.004855
    108 H49         1.9440    0.4440   -2.4890 hc        1 MOL      0.004855
    109 N10         5.7660    1.7670   -1.8910 n         1 MOL     -0.498697
    110 C35         7.1700    1.3040   -1.7100 c3        1 MOL      0.509267
    111 C36         7.3990   -0.2540   -1.7570 c         1 MOL      0.287039
    112 O17         8.3340   -0.8530   -2.3300 o         1 MOL     -0.481663
    113 C37         7.9450    1.8500   -0.4140 c3        1 MOL     -0.591156
    114 C38         8.0870    3.3300   -0.3940 c         1 MOL      0.765164
    115 N11         7.3850    3.9260    0.5350 n         1 MOL     -0.751738
    116 O18         8.8210    3.9450   -1.1830 o         1 MOL     -0.576608
    117 H50         5.1220    1.8380   -1.1140 hn        1 MOL      0.277282
    118 H51         7.7450    1.5360   -2.6020 h1        1 MOL      0.015999
    119 H52         8.8860    1.3050   -0.3750 hc        1 MOL      0.124757
    120 H53         7.3770    1.5540    0.4610 hc        1 MOL      0.124757
    121 H54         6.8190    3.4220    1.1990 hn        1 MOL      0.339859
    122 H55         7.4830    4.9100    0.7540 hn        1 MOL      0.339859
    123 N12         6.3510   -0.9160   -1.1480 n         1 MOL     -0.262589
    124 C39         6.4090   -2.3030   -0.8400 c3        1 MOL      0.177756
    125 C40         4.9450   -2.7730   -0.4940 c         1 MOL      0.390103
    126 O19         4.0410   -1.9720   -0.3550 o         1 MOL     -0.429118
    127 C41         7.4680   -2.5620    0.2330 c3        1 MOL     -0.123929
    128 C42         7.6620   -1.5110    1.2880 ca        1 MOL      0.272565
    129 C43         8.9330   -0.8790    1.3100 ca        1 MOL     -0.373166
    130 C44         6.7670   -1.3080    2.3480 ca        1 MOL     -0.373166
    131 C45         9.2850   -0.0200    2.4430 ca        1 MOL     -0.017508
    132 C46         7.1340   -0.4450    3.4250 ca        1 MOL     -0.017508
    133 C47         8.3800    0.2500    3.4650 ca        1 MOL      0.092920
    134 O20         8.7430    0.9350    4.5800 oh        1 MOL     -0.411456
    135 H56         5.4930   -0.4510   -0.9090 hn        1 MOL      0.156419
    136 H57         6.6620   -2.8910   -1.7160 h1        1 MOL      0.012053
    137 H58         8.4180   -2.7900   -0.2490 hc        1 MOL      0.054171
    138 H59         7.3680   -3.4710    0.8120 hc        1 MOL      0.054171
    139 H60         9.6160   -0.9380    0.4760 ha        1 MOL      0.160238
    140 H61         5.8600   -1.8940    2.3700 ha        1 MOL      0.160238
    141 H62        10.2790    0.3860    2.4790 ha        1 MOL      0.091985
    142 H63         6.5090   -0.1840    4.2620 ha        1 MOL      0.091985
    143 H64         9.5280    1.4740    4.4870 ho        1 MOL      0.320075
    144 N13         4.8750   -4.0640   -0.1420 n         1 MOL     -0.466275
    145 C48         3.8380   -4.8340    0.5660 c3        1 MOL      0.006701
    146 C49         2.5650   -4.9730   -0.2550 c         1 MOL      0.393673
    147 O21         2.0430   -6.0920   -0.2520 o         1 MOL     -0.526500
    148 C50         3.6460   -4.3790    1.9150 c3        1 MOL     -0.084414
    149 C51         4.8140   -4.7520    2.8160 c3        1 MOL     -0.015905
    150 C52         4.4630   -4.3380    4.2370 c         1 MOL      0.548764
    151 O22         4.1420   -5.2070    5.0720 o         1 MOL     -0.664199
    152 O23         4.7080   -3.1580    4.5980 o         1 MOL     -0.664199
    153 H65         5.7530   -4.4700   -0.4200 hn        1 MOL      0.257590
    154 H66         4.2450   -5.8440    0.6680 h1        1 MOL      0.095979
    155 H67         2.6310   -4.6190    2.2440 hc        1 MOL      0.074100
    156 H68         3.5500   -3.2930    1.8960 hc        1 MOL      0.074100
    157 H69         5.7590   -4.3100    2.4870 hc        1 MOL     -0.005551
    158 H70         4.9530   -5.8280    2.7430 hc        1 MOL     -0.005551
    159 N14         2.0580   -3.9450   -0.9270 n         1 MOL     -0.194861
    160 C53         0.9250   -4.0130   -1.8900 c3        1 MOL     -0.069225
    161 C54         1.3860   -4.7340   -3.1900 c         1 MOL      0.517194
    162 O24         0.5450   -5.3240   -3.8420 o         1 MOL     -0.528921
    163 C55         0.2690   -2.6880   -2.1160 c3        1 MOL     -0.214150
    164 C56        -0.2810   -1.9290   -0.8900 c3        1 MOL      0.605351
    165 C57        -1.2690   -2.6670   -0.0110 c         1 MOL      0.592675
    166 O25        -2.1970   -1.9960    0.4540 o         1 MOL     -0.631232
    167 O26        -1.1940   -3.8840    0.2570 o         1 MOL     -0.631232
    168 H71         2.6310   -3.1160   -0.8360 hn        1 MOL      0.205437
    169 H72         0.1010   -4.6570   -1.5610 h1        1 MOL      0.120972
    170 H73        -0.5220   -2.8390   -2.8440 hc        1 MOL      0.038963
    171 H74         1.0930   -2.0790   -2.4820 hc        1 MOL      0.038963
    172 H75        -0.6400   -0.9440   -1.1860 hc        1 MOL     -0.222088
    173 H76         0.6010   -1.8110   -0.2520 hc        1 MOL     -0.222088
    174 N15         2.6550   -4.5550   -3.5490 n         1 MOL     -0.251371
    175 C58         3.3640   -5.3950   -4.5070 c3        1 MOL     -0.340949
    176 H77         3.2930   -6.4370   -4.1980 h1        1 MOL      0.126767
    177 H78         2.9160   -5.2780   -5.4940 h1        1 MOL      0.126767
    178 H79         4.4120   -5.0990   -4.5450 h1        1 MOL      0.126767
    179 H80         3.2980   -3.9960   -3.0070 hn        1 MOL      0.217082
    180 Ca1        -4.5810   -1.8160    1.3480 Ca        1 MOL      1.738688
    181 O27        -3.3700   -4.0010    2.0570 oh        1 MOL     -0.841032
    182 H81        -2.5040   -3.8880    1.6610 ho        1 MOL      0.390755
    183 H82        -3.5650   -4.9370    1.9570 ho        1 MOL      0.390755
    184 O28        -5.0210   -2.9280    4.3760 oh        1 MOL     -0.841032
    185 H83        -4.4950   -2.1350    4.3670 ho        1 MOL      0.390755
    186 H84        -4.4500   -3.5900    4.7770 ho        1 MOL      0.390755
    187 O29        -6.4470   -0.4700    2.9010 oh        1 MOL     -0.841032
    188 H85        -7.2400   -0.0250    2.6060 ho        1 MOL      0.390755
    189 H86        -6.5850   -0.5990    3.8390 ho        1 MOL      0.390755
@<TRIPOS>BOND
     1    1    2 1   
     2    1    4 1   
     3    1    5 1   
     4    1    6 1   
     5    2    3 2   
     6    2    7 1   
     7    7    8 1   
     8    7   15 1   
     9    8    9 1   
    10    8   11 1   
    11    8   16 1   
    12    9   10 2   
    13    9   19 1   
    14   11   12 1   
    15   11   17 1   
    16   11   18 1   
    17   12   13 1   
    18   12   14 1   
    19   19   20 1   
    20   19   27 1   
    21   20   21 1   
    22   20   23 1   
    23   20   28 1   
    24   21   22 2   
    25   21   38 1   
    26   23   24 1   
    27   23   25 1   
    28   23   29 1   
    29   24   26 1   
    30   24   30 1   
    31   24   31 1   
    32   25   32 1   
    33   25   33 1   
    34   25   34 1   
    35   26   35 1   
    36   26   36 1   
    37   26   37 1   
    38   38   39 1   
    39   38   46 1   
    40   39   40 1   
    41   39   42 1   
    42   39   47 1   
    43   40   41 2   
    44   40   50 1   
    45   42   43 1   
    46   42   48 1   
    47   42   49 1   
    48   43   44 1   
    49   43   45 1   
    50   50   51 1   
    51   50   54 1   
    52   51   52 1   
    53   51   55 1   
    54   51   56 1   
    55   52   53 2   
    56   52   57 1   
    57   57   58 1   
    58   57   65 1   
    59   58   59 1   
    60   58   61 1   
    61   58   66 1   
    62   59   60 2   
    63   59   69 1   
    64   61   62 1   
    65   61   67 1   
    66   61   68 1   
    67   62   63 1   
    68   62   64 1   
    69   69   70 1   
    70   69   73 1   
    71   70   71 1   
    72   70   74 1   
    73   70   75 1   
    74   71   72 2   
    75   71   76 1   
    76   76   77 1   
    77   76   85 1   
    78   77   78 1   
    79   77   80 1   
    80   77   86 1   
    81   78   79 2   
    82   78   93 1   
    83   80   81 1   
    84   80   87 1   
    85   80   88 1   
    86   81   82 1   
    87   81   89 1   
    88   81   90 1   
    89   82   83 1   
    90   82   84 2   
    91   83   91 1   
    92   83   92 1   
    93   93   94 1   
    94   93  100 1   
    95   94   95 1   
    96   94   97 1   
    97   94  101 1   
    98   95   96 2   
    99   95  109 1   
   100   97   98 1   
   101   97   99 1   
   102   97  102 1   
   103   98  103 1   
   104   98  104 1   
   105   98  105 1   
   106   99  106 1   
   107   99  107 1   
   108   99  108 1   
   109  109  110 1   
   110  109  117 1   
   111  110  111 1   
   112  110  113 1   
   113  110  118 1   
   114  111  112 2   
   115  111  123 1   
   116  113  114 1   
   117  113  119 1   
   118  113  120 1   
   119  114  115 1   
   120  114  116 2   
   121  115  121 1   
   122  115  122 1   
   123  123  124 1   
   124  123  135 1   
   125  124  125 1   
   126  124  127 1   
   127  124  136 1   
   128  125  126 2   
   129  125  144 1   
   130  127  128 1   
   131  127  137 1   
   132  127  138 1   
   133  128  129 ar  
   134  128  130 ar  
   135  129  131 ar  
   136  129  139 1   
   137  130  132 ar  
   138  130  140 1   
   139  131  133 ar  
   140  131  141 1   
   141  132  133 ar  
   142  132  142 1   
   143  133  134 1   
   144  134  143 1   
   145  144  145 1   
   146  144  153 1   
   147  145  146 1   
   148  145  148 1   
   149  145  154 1   
   150  146  147 2   
   151  146  159 1   
   152  148  149 1   
   153  148  155 1   
   154  148  156 1   
   155  149  150 1   
   156  149  157 1   
   157  149  158 1   
   158  150  151 1   
   159  150  152 1   
   160  159  160 1   
   161  159  168 1   
   162  160  161 1   
   163  160  163 1   
   164  160  169 1   
   165  161  162 2   
   166  161  174 1   
   167  163  164 1   
   168  163  170 1   
   169  163  171 1   
   170  164  165 1   
   171  164  172 1   
   172  164  173 1   
   173  165  166 1   
   174  165  167 1   
   175  174  175 1   
   176  174  179 1   
   177  175  176 1   
   178  175  177 1   
   179  175  178 1   
   180  181  182 1   
   181  181  183 1   
   182  184  185 1   
   183  184  186 1   
   184  187  188 1   
   185  187  189 1   
@<TRIPOS>SUBSTRUCTURE
     1 MOL         1 TEMP              0 ****  ****    0 ROOT
