@<TRIPOS>MOLECULE
MOL
  178   175     1     0     0
SMALL
resp


@<TRIPOS>ATOM
      1 C1        -10.3120   -6.2000   -3.0950 c3        1 MOL     -0.254525
      2 C2         -9.3080   -5.6430   -2.0260 c         1 MOL      0.595848
      3 O1         -8.1780   -6.1240   -1.8480 o         1 MOL     -0.551451
      4 H1        -11.1780   -5.5400   -3.1590 hc        1 MOL      0.053069
      5 H2         -9.8200   -6.2480   -4.0660 hc        1 MOL      0.053069
      6 H3        -10.6370   -7.1990   -2.8020 hc        1 MOL      0.053069
      7 N1         -9.7470   -4.6940   -1.2500 n         1 MOL     -0.325888
      8 C3        -10.9020   -3.8040   -1.3040 c3        1 MOL      0.094414
      9 C4        -11.2180   -3.3290    0.1370 c         1 MOL      0.458486
     10 O2        -10.7920   -4.0450    1.0750 o         1 MOL     -0.501512
     11 C5        -10.6390   -2.6240   -2.3300 c3        1 MOL     -0.125119
     12 C6         -9.5980   -1.6180   -1.9100 c         1 MOL      0.737235
     13 O3         -9.6280   -1.1700   -0.7860 o         1 MOL     -0.736749
     14 O4         -8.7100   -1.2760   -2.6920 o         1 MOL     -0.736749
     15 H4         -9.1120   -4.3990   -0.5240 hn        1 MOL      0.242041
     16 H5        -11.7930   -4.3880   -1.5490 h1        1 MOL      0.036856
     17 H6        -11.5870   -2.0860   -2.4630 hc        1 MOL     -0.006272
     18 H7        -10.4010   -3.1140   -3.2660 hc        1 MOL     -0.006272
     19 N2        -11.9490   -2.2760    0.3280 n         1 MOL     -0.485912
     20 C7        -12.1810   -1.5800    1.6200 c3        1 MOL      0.239693
     21 C8        -10.9350   -1.4090    2.5400 c         1 MOL      0.289305
     22 O5        -11.0230   -1.4870    3.7570 o         1 MOL     -0.498138
     23 C9        -13.2440   -2.4110    2.3780 c3        1 MOL     -0.492113
     24 H8        -12.2680   -1.7650   -0.4780 hn        1 MOL      0.312854
     25 H9        -12.5150   -0.5880    1.3000 h1        1 MOL      0.019108
     26 H10       -13.5340   -1.9090    3.3050 hc        1 MOL      0.139829
     27 H11       -14.0960   -2.6430    1.7290 hc        1 MOL      0.139829
     28 H12       -12.8050   -3.3540    2.6970 hc        1 MOL      0.139829
     29 N3         -9.7320   -1.2670    1.9670 n         1 MOL     -0.074471
     30 C10        -8.4420   -1.1430    2.6960 c3        1 MOL      0.095194
     31 C11        -7.7730    0.2330    2.3690 c         1 MOL      0.426252
     32 O6         -8.2910    0.9030    1.4260 o         1 MOL     -0.596025
     33 C12        -7.5430   -2.3520    2.4420 c3        1 MOL     -0.261503
     34 C13        -7.2160   -2.6190    0.9950 c         1 MOL      0.734529
     35 O7         -6.7220   -1.7430    0.2210 o         1 MOL     -0.651222
     36 O8         -7.3290   -3.8120    0.5890 o         1 MOL     -0.651222
     37 H13        -9.6510   -1.2720    0.9610 hn        1 MOL      0.136453
     38 H14        -8.6820   -1.1240    3.7610 h1        1 MOL      0.026786
     39 H15        -8.0450   -3.2370    2.8360 hc        1 MOL      0.074713
     40 H16        -6.5580   -2.2000    2.8850 hc        1 MOL      0.074713
     41 N4         -6.6800    0.6400    3.1000 n         1 MOL     -0.382397
     42 C14        -5.9640    1.8580    2.8560 c3        1 MOL     -0.169924
     43 C15        -5.4610    2.0560    1.4630 c         1 MOL      0.575126
     44 O9         -5.6750    1.2060    0.6250 o         1 MOL     -0.461398
     45 H17        -6.3530   -0.0540    3.7580 hn        1 MOL      0.308009
     46 H18        -5.1540    1.9690    3.5820 h1        1 MOL      0.126001
     47 H19        -6.7100    2.6280    3.0780 h1        1 MOL      0.126001
     48 N5         -4.7470    3.1650    1.1290 n         1 MOL     -0.621120
     49 C16        -4.3600    3.6120   -0.2150 c3        1 MOL      0.337515
     50 C17        -2.8500    3.9740   -0.3690 c         1 MOL      0.475272
     51 O10        -2.4830    4.7510   -1.2520 o         1 MOL     -0.532079
     52 C18        -5.3380    4.7190   -0.7010 c3        1 MOL     -0.172118
     53 C19        -6.7540    4.2960   -0.7190 c         1 MOL      0.587406
     54 N6         -7.7400    5.2030   -0.6110 n         1 MOL     -0.739606
     55 O11        -7.0360    3.1290   -0.9470 o         1 MOL     -0.519799
     56 H20        -4.5090    3.7730    1.9020 hn        1 MOL      0.279501
     57 H21        -4.4970    2.7200   -0.8200 h1        1 MOL     -0.000125
     58 H22        -5.0920    5.0030   -1.7300 hc        1 MOL      0.059084
     59 H23        -5.2230    5.5760   -0.0350 hc        1 MOL      0.059084
     60 H24        -7.3900    6.1180   -0.3440 hn        1 MOL      0.345298
     61 H25        -8.7160    4.9710   -0.7030 hn        1 MOL      0.345298
     62 N7         -2.0170    3.5660    0.6390 n         1 MOL     -0.529001
     63 C20        -0.5790    3.9250    0.7740 c3        1 MOL      0.168490
     64 C21        -0.2960    5.2550    1.3590 c         1 MOL      0.544072
     65 O12        -0.8920    5.6230    2.3400 o         1 MOL     -0.570609
     66 H26        -2.4770    3.1530    1.4410 hn        1 MOL      0.308918
     67 H27        -0.1750    3.8960   -0.2350 h1        1 MOL      0.036807
     68 H28        -0.1150    3.0920    1.2830 h1        1 MOL      0.036807
     69 N8          0.5160    6.0890    0.6960 n         1 MOL     -0.332695
     70 C22         1.4430    5.7980   -0.4840 c3        1 MOL     -0.204127
     71 C23         2.4910    4.7750   -0.2050 c         1 MOL      0.365963
     72 O13         3.4790    5.0540    0.4990 o         1 MOL     -0.387059
     73 C24         2.0020    7.2010   -0.9180 c3        1 MOL      0.272984
     74 C25         0.8180    7.9710   -1.5960 c3        1 MOL     -0.463938
     75 O14         2.3160    7.9190    0.2530 oh        1 MOL     -0.572330
     76 H29         0.6670    7.0180    1.0610 hn        1 MOL      0.292586
     77 H30         0.8050    5.3780   -1.2720 h1        1 MOL      0.122271
     78 H31         2.8820    7.2260   -1.5740 h1        1 MOL      0.092893
     79 H32         2.7430    8.7020   -0.0950 ho        1 MOL      0.401263
     80 H33        -0.0280    8.0410   -0.9160 hc        1 MOL      0.116793
     81 H34         1.2710    8.9290   -1.8510 hc        1 MOL      0.116793
     82 H35         0.5370    7.4810   -2.5270 hc        1 MOL      0.116793
     83 N9          2.4550    3.7060   -1.0160 n         1 MOL     -0.197169
     84 C26         3.3640    2.5950   -0.9470 c3        1 MOL     -0.533256
     85 C27         4.8460    2.8810   -1.3170 c         1 MOL      0.859609
     86 O15         5.1270    3.7310   -2.1750 o         1 MOL     -0.636782
     87 C28         2.7200    1.2480   -1.4310 c3        1 MOL      0.264096
     88 C29         2.8270    0.9870   -2.9780 c3        1 MOL      0.131787
     89 C30         1.2480    1.1620   -1.0120 c3        1 MOL     -0.306597
     90 C31         2.2740   -0.2890   -3.4870 c3        1 MOL     -0.178104
     91 H36         1.8430    3.7630   -1.8110 hn        1 MOL      0.233911
     92 H37         3.3620    2.4090    0.1280 h1        1 MOL      0.246788
     93 H38         3.2150    0.4210   -0.9190 hc        1 MOL      0.023887
     94 H39         3.8830    1.0990   -3.2330 hc        1 MOL     -0.038788
     95 H40         2.2990    1.7560   -3.5500 hc        1 MOL     -0.038788
     96 H41         0.7070    1.7370   -1.7530 hc        1 MOL      0.068104
     97 H42         0.8230    0.1560   -1.0330 hc        1 MOL      0.068104
     98 H43         1.0470    1.6350   -0.0540 hc        1 MOL      0.068104
     99 H44         1.2340   -0.4530   -3.2040 hc        1 MOL      0.038898
    100 H45         2.2560   -0.3720   -4.5730 hc        1 MOL      0.038898
    101 H46         2.8480   -1.0510   -2.9720 hc        1 MOL      0.038898
    102 N10         5.8680    2.3480   -0.6320 n         1 MOL     -0.669494
    103 C32         5.8520    1.3150    0.3950 c3        1 MOL     -0.024148
    104 C33         7.0010    0.3060    0.2670 c         1 MOL      0.649961
    105 O16         6.7700   -0.9230    0.1120 o         1 MOL     -0.679069
    106 C34         5.9140    1.9250    1.7910 c3        1 MOL     -0.060444
    107 C35         6.8290    3.0710    2.0130 c         1 MOL      0.693821
    108 O17         6.7700    3.5970    3.1300 o         1 MOL     -0.694260
    109 O18         7.6920    3.4010    1.1400 o         1 MOL     -0.694260
    110 H47         6.7690    2.7770   -0.7940 hn        1 MOL      0.344742
    111 H48         4.8740    0.8400    0.4920 h1        1 MOL      0.086734
    112 H49         6.1740    1.1050    2.4610 hc        1 MOL      0.014795
    113 H50         4.8850    2.1280    2.1030 hc        1 MOL      0.014795
    114 N11         8.1870    0.7870    0.1690 n         1 MOL     -0.409820
    115 C36         9.4650    0.0780   -0.0290 c3        1 MOL      0.419811
    116 C37         9.9020   -0.6130    1.2510 c         1 MOL      0.194807
    117 O19         9.8770    0.0470    2.3340 o         1 MOL     -0.470132
    118 C38        10.4050    1.0940   -0.6540 c3        1 MOL     -0.367541
    119 C39        11.8450    0.6870   -0.7510 ca        1 MOL      0.230348
    120 C40        12.8240    1.1620    0.1470 ca        1 MOL     -0.250557
    121 C41        12.2110   -0.1300   -1.8920 ca        1 MOL     -0.250557
    122 C42        14.1530    0.7410   -0.0660 ca        1 MOL     -0.056946
    123 C43        13.5670   -0.5190   -2.0760 ca        1 MOL     -0.056946
    124 C44        14.5330   -0.0190   -1.1560 ca        1 MOL     -0.182743
    125 H51         8.2820    1.7920    0.2170 hn        1 MOL      0.197179
    126 H52         9.1990   -0.6710   -0.7780 h1        1 MOL     -0.033342
    127 H53        10.4080    1.9990   -0.0240 hc        1 MOL      0.121109
    128 H54        10.1090    1.3030   -1.6810 hc        1 MOL      0.121109
    129 H55        12.5740    1.8560    0.9340 ha        1 MOL      0.160043
    130 H56        11.4220   -0.6320   -2.4410 ha        1 MOL      0.160043
    131 H57        14.8800    1.0980    0.6340 ha        1 MOL      0.094952
    132 H58        13.8640   -1.2170   -2.8450 ha        1 MOL      0.094952
    133 H59        15.5550   -0.2720   -1.4160 ha        1 MOL      0.100955
    134 N12        10.2260   -1.9630    1.1910 n         1 MOL      0.108422
    135 C45        10.6320   -2.7370    0.0200 c3        1 MOL      0.138573
    136 C46         9.4620   -3.5710   -0.5490 c         1 MOL      0.512418
    137 O20         9.5720   -4.0210   -1.7060 o         1 MOL     -0.597760
    138 C47        11.7410   -3.6760    0.5640 c3        1 MOL     -0.146794
    139 C48        11.4110   -3.9130    2.0210 c3        1 MOL     -0.122058
    140 C49        10.5570   -2.6510    2.4600 c3        1 MOL     -0.063762
    141 H60        10.9530   -2.0270   -0.7410 h1        1 MOL     -0.061446
    142 H61        11.7670   -4.6050   -0.0030 hc        1 MOL      0.051451
    143 H62        12.6500   -3.0660    0.5120 hc        1 MOL      0.051451
    144 H63        10.9130   -4.8780    1.9790 hc        1 MOL      0.053825
    145 H64        12.3080   -4.0270    2.6340 hc        1 MOL      0.053825
    146 H65         9.7030   -2.9220    3.0730 h1        1 MOL      0.059357
    147 H66        11.2500   -2.0600    3.0540 h1        1 MOL      0.059357
    148 N13         8.3530   -3.8650    0.1960 n         1 MOL     -0.294390
    149 C50         7.1870   -4.6160   -0.1540 c3        1 MOL      0.187645
    150 C51         7.4990   -6.0940   -0.4790 c         1 MOL      0.343417
    151 O21         7.6060   -6.8860    0.4530 o         1 MOL     -0.538538
    152 C52         6.1980   -4.4810    1.0330 c3        1 MOL      0.007337
    153 C53         4.8660   -5.1430    0.7870 c3        1 MOL     -0.184378
    154 C54         3.9550   -4.9640    1.9830 c         1 MOL      0.714831
    155 O22         3.9150   -5.8910    2.8130 o         1 MOL     -0.699464
    156 O23         3.2030   -3.9490    2.0570 o         1 MOL     -0.699464
    157 H67         8.4100   -3.6050    1.1710 hn        1 MOL      0.155180
    158 H68         6.6390   -4.0590   -0.9240 h1        1 MOL      0.052781
    159 H69         6.0590   -3.4360    1.3020 hc        1 MOL      0.032572
    160 H70         6.5980   -4.9400    1.9380 hc        1 MOL      0.032572
    161 H71         5.0570   -6.1860    0.5730 hc        1 MOL      0.006571
    162 H72         4.4140   -4.7240   -0.1160 hc        1 MOL      0.006571
    163 N14         7.6470   -6.5020   -1.7330 n         1 MOL     -0.226010
    164 C55         7.4290   -5.7710   -2.9460 c3        1 MOL     -0.046060
    165 H73         6.3610   -5.5990   -3.0780 h1        1 MOL      0.036402
    166 H74         7.9460   -4.8130   -2.8920 h1        1 MOL      0.036402
    167 H75         7.8110   -6.3450   -3.7900 h1        1 MOL      0.036402
    168 H76         7.8780   -7.4830   -1.8290 hn        1 MOL      0.229971
    169 Ca1        -7.6540    0.5560   -1.0750 Ca        1 MOL      1.679757
    170 O24        -7.6580    1.3700   -3.5950 oh        1 MOL     -0.857888
    171 H77        -8.3390    0.8960   -4.0700 ho        1 MOL      0.413078
    172 H78        -7.0630    1.6760   -4.2750 ho        1 MOL      0.413078
    173 O25        -5.2170   -0.0710   -2.0540 oh        1 MOL     -0.857888
    174 H79        -4.8540    0.3810   -2.8200 ho        1 MOL      0.413078
    175 H80        -4.5130   -0.6270   -1.7380 ho        1 MOL      0.413078
    176 O26        -9.9580    1.7910   -1.3770 oh        1 MOL     -0.857888
    177 H81       -10.8480    1.4350   -1.3610 ho        1 MOL      0.413078
    178 H82       -10.0150    2.5780   -1.9250 ho        1 MOL      0.413078
@<TRIPOS>BOND
     1    1    2 1   
     2    1    4 1   
     3    1    5 1   
     4    1    6 1   
     5    2    3 2   
     6    2    7 1   
     7    7    8 1   
     8    7   15 1   
     9    8    9 1   
    10    8   11 1   
    11    8   16 1   
    12    9   10 2   
    13    9   19 1   
    14   11   12 1   
    15   11   17 1   
    16   11   18 1   
    17   12   13 1   
    18   12   14 1   
    19   19   20 1   
    20   19   24 1   
    21   20   21 1   
    22   20   23 1   
    23   20   25 1   
    24   21   22 2   
    25   21   29 1   
    26   23   26 1   
    27   23   27 1   
    28   23   28 1   
    29   29   30 1   
    30   29   37 1   
    31   30   31 1   
    32   30   33 1   
    33   30   38 1   
    34   31   32 2   
    35   31   41 1   
    36   33   34 1   
    37   33   39 1   
    38   33   40 1   
    39   34   35 1   
    40   34   36 1   
    41   41   42 1   
    42   41   45 1   
    43   42   43 1   
    44   42   46 1   
    45   42   47 1   
    46   43   44 2   
    47   43   48 1   
    48   48   49 1   
    49   48   56 1   
    50   49   50 1   
    51   49   52 1   
    52   49   57 1   
    53   50   51 2   
    54   50   62 1   
    55   52   53 1   
    56   52   58 1   
    57   52   59 1   
    58   53   54 1   
    59   53   55 2   
    60   54   60 1   
    61   54   61 1   
    62   62   63 1   
    63   62   66 1   
    64   63   64 1   
    65   63   67 1   
    66   63   68 1   
    67   64   65 2   
    68   64   69 1   
    69   69   70 1   
    70   69   76 1   
    71   70   71 1   
    72   70   73 1   
    73   70   77 1   
    74   71   72 2   
    75   71   83 1   
    76   73   74 1   
    77   73   75 1   
    78   73   78 1   
    79   74   80 1   
    80   74   81 1   
    81   74   82 1   
    82   75   79 1   
    83   83   84 1   
    84   83   91 1   
    85   84   85 1   
    86   84   87 1   
    87   84   92 1   
    88   85   86 2   
    89   85  102 1   
    90   87   88 1   
    91   87   89 1   
    92   87   93 1   
    93   88   90 1   
    94   88   94 1   
    95   88   95 1   
    96   89   96 1   
    97   89   97 1   
    98   89   98 1   
    99   90   99 1   
   100   90  100 1   
   101   90  101 1   
   102  102  103 1   
   103  102  110 1   
   104  103  104 1   
   105  103  106 1   
   106  103  111 1   
   107  104  105 2   
   108  104  114 1   
   109  106  107 1   
   110  106  112 1   
   111  106  113 1   
   112  107  108 1   
   113  107  109 1   
   114  114  115 1   
   115  114  125 1   
   116  115  116 1   
   117  115  118 1   
   118  115  126 1   
   119  116  117 2   
   120  116  134 1   
   121  118  119 1   
   122  118  127 1   
   123  118  128 1   
   124  119  120 ar  
   125  119  121 ar  
   126  120  122 ar  
   127  120  129 1   
   128  121  123 ar  
   129  121  130 1   
   130  122  124 ar  
   131  122  131 1   
   132  123  124 ar  
   133  123  132 1   
   134  124  133 1   
   135  134  135 1   
   136  134  140 1   
   137  135  136 1   
   138  135  138 1   
   139  135  141 1   
   140  136  137 2   
   141  136  148 1   
   142  138  139 1   
   143  138  142 1   
   144  138  143 1   
   145  139  140 1   
   146  139  144 1   
   147  139  145 1   
   148  140  146 1   
   149  140  147 1   
   150  148  149 1   
   151  148  157 1   
   152  149  150 1   
   153  149  152 1   
   154  149  158 1   
   155  150  151 2   
   156  150  163 1   
   157  152  153 1   
   158  152  159 1   
   159  152  160 1   
   160  153  154 1   
   161  153  161 1   
   162  153  162 1   
   163  154  155 1   
   164  154  156 1   
   165  163  164 1   
   166  163  168 1   
   167  164  165 1   
   168  164  166 1   
   169  164  167 1   
   170  170  171 1   
   171  170  172 1   
   172  173  174 1   
   173  173  175 1   
   174  176  177 1   
   175  176  178 1   
@<TRIPOS>SUBSTRUCTURE
     1 MOL         1 TEMP              0 ****  ****    0 ROOT
