@<TRIPOS>MOLECULE
MOL
  182   178     1     0     0
SMALL
resp


@<TRIPOS>ATOM
      1 C1          0.3090   -3.4740    5.7920 c3        1 MOL     -0.421494
      2 C2          0.4540   -3.4680    4.2850 c         1 MOL      0.781772
      3 O1         -0.5100   -3.4990    3.5050 o         1 MOL     -0.584807
      4 H1          0.4010   -4.4950    6.1620 hc        1 MOL      0.122212
      5 H2          1.0900   -2.8560    6.2350 hc        1 MOL      0.122212
      6 H3         -0.6680   -3.0760    6.0650 hc        1 MOL      0.122212
      7 N1          1.7150   -3.3330    3.8220 n         1 MOL     -0.588868
      8 C3          2.1420   -3.3290    2.3550 c3        1 MOL      0.065044
      9 C4          2.2640   -4.6740    1.6600 c         1 MOL      0.571862
     10 O2          2.2830   -5.7490    2.2960 o         1 MOL     -0.556537
     11 C5          3.4600   -2.5100    2.2550 c3        1 MOL     -0.001527
     12 C6          3.4000   -1.5260    1.0920 c         1 MOL      0.634610
     13 O3          3.7380   -0.3260    1.2820 o         1 MOL     -0.688970
     14 O4          3.2230   -2.0270   -0.0750 o         1 MOL     -0.688970
     15 H4          2.4690   -3.1760    4.4700 hn        1 MOL      0.322516
     16 H5          1.4120   -2.7610    1.7850 h1        1 MOL     -0.069709
     17 H6          4.3300   -3.1480    2.1270 hc        1 MOL      0.023881
     18 H7          3.6470   -1.9760    3.1840 hc        1 MOL      0.023881
     19 N2          2.1890   -4.5930    0.3140 n         1 MOL     -0.422800
     20 C7          2.5250   -5.7130   -0.6190 c3        1 MOL      0.129285
     21 C8          3.7430   -5.5100   -1.4190 c         1 MOL      0.344787
     22 O5          4.3860   -6.4810   -1.8130 o         1 MOL     -0.521526
     23 C9          1.3410   -6.0160   -1.4740 c3        1 MOL      0.021565
     24 C10         0.0600   -6.5970   -0.8090 c3        1 MOL     -0.015903
     25 C11        -0.9610   -6.9280   -1.8690 c3        1 MOL      0.037272
     26 C12        -2.2150   -7.6730   -1.2480 c3        1 MOL      0.024073
     27 N3         -3.2790   -7.8560   -2.2830 n4        1 MOL     -0.230520
     28 H8          1.8330   -3.7390   -0.0910 hn        1 MOL      0.299033
     29 H9          2.7060   -6.6630   -0.1120 h1        1 MOL      0.083494
     30 H10         1.6870   -6.7950   -2.1490 hc        1 MOL     -0.005288
     31 H11         1.0410   -5.1310   -2.0310 hc        1 MOL     -0.005288
     32 H12        -0.3060   -5.8800   -0.0630 hc        1 MOL      0.027149
     33 H13         0.3520   -7.5180   -0.3180 hc        1 MOL      0.027149
     34 H14        -0.5650   -7.6030   -2.6270 hc        1 MOL      0.008021
     35 H15        -1.1610   -6.0260   -2.4490 hc        1 MOL      0.008021
     36 H16        -2.5040   -7.1860   -0.3270 hx        1 MOL      0.071810
     37 H17        -1.8520   -8.6790   -1.0370 hx        1 MOL      0.071810
     38 H18        -3.8230   -7.0070   -2.3700 hn        1 MOL      0.245867
     39 H19        -2.9740   -8.2670   -3.1540 hn        1 MOL      0.245867
     40 H20        -3.9380   -8.5320   -1.9270 hn        1 MOL      0.245867
     41 N4          4.1470   -4.2500   -1.6440 n         1 MOL     -0.095472
     42 C13         5.2650   -3.8360   -2.4370 c3        1 MOL      0.267953
     43 C14         6.4540   -3.2960   -1.4950 c         1 MOL      0.339486
     44 O6          7.6360   -3.5930   -1.7490 o         1 MOL     -0.555778
     45 C15         4.9400   -2.7580   -3.4960 c3        1 MOL     -0.460888
     46 C16         4.2880   -1.4580   -2.9880 c         1 MOL      0.973789
     47 O7          4.9390   -0.7160   -2.2270 o         1 MOL     -0.831955
     48 O8          3.0780   -1.2120   -3.1820 o         1 MOL     -0.831955
     49 H21         3.4440   -3.5330   -1.4600 hn        1 MOL      0.016780
     50 H22         5.6290   -4.7360   -2.9270 h1        1 MOL      0.032131
     51 H23         4.3370   -3.1620   -4.3070 hc        1 MOL      0.108516
     52 H24         5.9010   -2.4810   -3.9200 hc        1 MOL      0.108516
     53 N5          6.1060   -2.6600   -0.4360 n         1 MOL      0.012026
     54 C17         6.9500   -2.5540    0.7510 c3        1 MOL     -0.198566
     55 C18         7.4410   -1.1440    0.9780 c         1 MOL      0.507088
     56 O9          8.2740   -1.0310    1.8890 o         1 MOL     -0.564302
     57 H25         5.1260   -2.4150   -0.4070 hn        1 MOL     -0.045334
     58 H26         7.8510   -3.1560    0.7110 h1        1 MOL      0.124092
     59 H27         6.4040   -2.8000    1.6720 h1        1 MOL      0.124092
     60 N6          7.0700   -0.1230    0.2310 n         1 MOL     -0.331398
     61 C19         7.4970    1.3500    0.4130 c3        1 MOL      0.242099
     62 C20         6.2980    2.2970    0.1400 c         1 MOL      0.353388
     63 O10         5.2390    1.8760   -0.3370 o         1 MOL     -0.355475
     64 C21         8.6570    1.5830   -0.6310 c3        1 MOL     -0.377182
     65 C22         9.9910    1.3730    0.1460 c         1 MOL      0.536227
     66 N7         10.6030    0.2170    0.2550 n         1 MOL     -0.617100
     67 O11        10.3890    2.2330    0.8490 o         1 MOL     -0.530991
     68 H28         6.3970   -0.3500   -0.4930 hn        1 MOL      0.275438
     69 H29         7.7420    1.5070    1.4570 h1        1 MOL      0.083849
     70 H30         8.6970    2.6280   -0.9180 hc        1 MOL      0.115597
     71 H31         8.6570    1.0180   -1.5550 hc        1 MOL      0.115597
     72 H32        10.2780   -0.5590   -0.3060 hn        1 MOL      0.328015
     73 H33        11.5210    0.2460    0.6890 hn        1 MOL      0.328015
     74 N8          6.4910    3.5920    0.1910 n         1 MOL     -0.387906
     75 C23         5.5010    4.5670   -0.2380 c3        1 MOL      0.019543
     76 C24         4.1870    4.5480    0.4870 c         1 MOL      0.479077
     77 O12         4.1570    4.2880    1.6790 o         1 MOL     -0.464784
     78 H34         7.4620    3.8860    0.2500 hn        1 MOL      0.270587
     79 H35         5.2710    4.3710   -1.2860 h1        1 MOL      0.057010
     80 H36         5.9170    5.5680   -0.0990 h1        1 MOL      0.057010
     81 N9          3.1240    5.1100   -0.1190 n         1 MOL     -0.489006
     82 C25         1.6820    4.9900    0.3400 c3        1 MOL      0.187418
     83 C26         1.3330    3.5160    0.5720 c         1 MOL      0.654061
     84 O13         1.9780    2.5770    0.0190 o         1 MOL     -0.610090
     85 C27         0.7830    5.6930   -0.6900 c3        1 MOL     -0.252517
     86 C28         1.0880    7.1440   -0.8100 ca        1 MOL      0.161492
     87 C29         0.4970    8.0640    0.0830 ca        1 MOL     -0.189154
     88 C30         1.9720    7.5730   -1.7040 ca        1 MOL     -0.189154
     89 C31         0.6780    9.4640   -0.1560 ca        1 MOL     -0.260470
     90 C32         2.2980    8.9540   -1.8540 ca        1 MOL     -0.260470
     91 C33         1.6860    9.9060   -1.0340 ca        1 MOL      0.360677
     92 O14         1.9320   11.1810   -1.2830 oh        1 MOL     -0.476772
     93 H37         3.2580    5.4540   -1.0530 hn        1 MOL      0.246553
     94 H38         1.6100    5.5230    1.2930 h1        1 MOL      0.058971
     95 H39        -0.2280    5.5020   -0.3260 hc        1 MOL      0.068911
     96 H40         0.9380    5.1230   -1.5990 hc        1 MOL      0.068911
     97 H41        -0.1930    7.6810    0.8160 ha        1 MOL      0.135954
     98 H42         2.4410    6.8680   -2.3740 ha        1 MOL      0.135954
     99 H43         0.1300   10.2900    0.2690 ha        1 MOL      0.153984
    100 H44         3.0370    9.2510   -2.5670 ha        1 MOL      0.153984
    101 H45         1.2730   11.7490   -0.8690 ho        1 MOL      0.379725
    102 N10         0.3330    3.3010    1.4400 n         1 MOL     -0.691796
    103 C34        -0.0540    1.9640    2.0670 c3        1 MOL      0.091799
    104 C35        -0.3710    0.8200    1.0110 c         1 MOL      0.520956
    105 O15         0.5620    0.3050    0.4820 o         1 MOL     -0.456777
    106 C36         0.9170    1.5210    3.0940 c3        1 MOL      0.176977
    107 C37         0.7580    0.1840    3.7960 c3        1 MOL     -0.160557
    108 C38         1.1780    2.6330    4.1720 c3        1 MOL     -0.248513
    109 C39        -0.5060    0.0400    4.6250 c3        1 MOL     -0.023684
    110 H46        -0.0260    4.0930    1.9530 hn        1 MOL      0.356218
    111 H47        -0.9570    2.1350    2.6490 h1        1 MOL      0.042103
    112 H48         1.8600    1.3840    2.5640 hc        1 MOL      0.032746
    113 H49         1.6070    0.0440    4.4660 hc        1 MOL      0.072810
    114 H50         0.8490   -0.6060    3.0460 hc        1 MOL      0.072810
    115 H51         1.7470    3.4760    3.7830 hc        1 MOL      0.065692
    116 H52         0.2340    3.0590    4.5040 hc        1 MOL      0.065692
    117 H53         1.7020    2.2420    5.0370 hc        1 MOL      0.065692
    118 H54        -0.5640   -0.9000    5.1670 hc        1 MOL     -0.000314
    119 H55        -0.6050    0.8880    5.3110 hc        1 MOL     -0.000314
    120 H56        -1.3550    0.1030    3.9380 hc        1 MOL     -0.000314
    121 N11        -1.6440    0.3640    0.9070 n         1 MOL     -0.518581
    122 C40        -1.9990   -0.7610    0.0360 c3        1 MOL     -0.063117
    123 C41        -3.4220   -0.9750   -0.4230 c         1 MOL      0.522502
    124 O16        -3.7470   -1.9240   -1.1760 o         1 MOL     -0.533129
    125 C42        -1.4290   -2.0150    0.7320 c3        1 MOL      0.360208
    126 O17        -2.1840   -2.2120    1.9310 oh        1 MOL     -0.612597
    127 H57        -2.3580    0.7670    1.4920 hn        1 MOL      0.330412
    128 H58        -1.3490   -0.6020   -0.8190 h1        1 MOL      0.050239
    129 H59        -0.3790   -1.8780    0.9990 h1        1 MOL     -0.008288
    130 H60        -1.4660   -2.8650    0.0580 h1        1 MOL     -0.008288
    131 H61        -1.5270   -2.6350    2.4920 ho        1 MOL      0.371745
    132 N12        -4.2760   -0.0460    0.0580 n         1 MOL     -0.401612
    133 C43        -5.6980    0.0050   -0.3370 c3        1 MOL      0.221488
    134 C44        -5.9100    0.6400   -1.7160 c         1 MOL      0.487188
    135 O18        -5.1050    1.4260   -2.2220 o         1 MOL     -0.555644
    136 C45        -6.3900    0.7410    0.8220 c3        1 MOL     -0.318109
    137 H62        -3.9940    0.7240    0.6510 hn        1 MOL      0.228225
    138 H63        -5.9720   -1.0460   -0.2690 h1        1 MOL      0.075560
    139 H64        -6.3380    0.0810    1.6880 hc        1 MOL      0.103532
    140 H65        -5.9520    1.7270    0.9800 hc        1 MOL      0.103532
    141 H66        -7.4280    0.8800    0.5190 hc        1 MOL      0.103532
    142 N13        -7.0350    0.3470   -2.3730 n         1 MOL     -0.500464
    143 C46        -8.2060   -0.3600   -1.8640 c3        1 MOL      0.233390
    144 C47        -9.4850    0.2680   -2.4070 c         1 MOL      0.383833
    145 O19        -9.4890    0.6510   -3.6050 o         1 MOL     -0.524115
    146 C48        -8.1510   -1.8600   -2.3200 c3        1 MOL     -0.076667
    147 H67        -7.0160    0.7320   -3.3110 hn        1 MOL      0.321960
    148 H68        -8.2260   -0.3020   -0.7700 h1        1 MOL     -0.040449
    149 H69        -7.2000   -2.3390   -2.1120 hc        1 MOL      0.031773
    150 H70        -8.9210   -2.4660   -1.8310 hc        1 MOL      0.031773
    151 H71        -8.2340   -2.0250   -3.3860 hc        1 MOL      0.031773
    152 N14       -10.6400    0.3860   -1.6900 n         1 MOL     -0.384967
    153 C49       -10.9740    0.0510   -0.3220 c3        1 MOL     -0.086404
    154 C50       -10.2740    0.9950    0.6630 c         1 MOL      0.554205
    155 O20        -9.7330    0.5430    1.6370 o         1 MOL     -0.539455
    156 C51       -12.4590    0.1320   -0.1350 c3        1 MOL      0.030813
    157 C52       -13.0020   -0.2900    1.2520 c3        1 MOL     -0.399745
    158 C53       -14.5080    0.0330    1.2320 c         1 MOL      0.775305
    159 O21       -14.9240    1.1520    0.9370 o         1 MOL     -0.664425
    160 O22       -15.2500   -0.8940    1.4880 o         1 MOL     -0.664425
    161 H72       -11.3650    0.7860   -2.2680 hn        1 MOL      0.282942
    162 H73       -10.6440   -0.9510   -0.0710 h1        1 MOL      0.107588
    163 H74       -12.9010   -0.6380   -0.7790 hc        1 MOL      0.029548
    164 H75       -12.8700    1.1060   -0.4020 hc        1 MOL      0.029548
    165 H76       -12.5290    0.2500    2.0680 hc        1 MOL      0.103625
    166 H77       -12.7900   -1.3600    1.3200 hc        1 MOL      0.103625
    167 N15       -10.2690    2.3030    0.3370 n         1 MOL     -0.299425
    168 C54        -9.4210    3.2940    1.0100 c3        1 MOL     -0.290159
    169 H78        -9.4070    4.2150    0.4270 h1        1 MOL      0.121841
    170 H79        -9.8200    3.5000    2.0040 h1        1 MOL      0.121841
    171 H80        -8.4070    2.9060    1.0990 h1        1 MOL      0.121841
    172 H81       -10.7340    2.6590   -0.4810 hn        1 MOL      0.276736
    173 Ca1         2.5860    0.2720   -1.1530 Ca        1 MOL      1.747734
    174 O23         0.4790    1.1990   -2.3040 oh        1 MOL     -0.869574
    175 H82         0.5730    2.0310   -2.7720 ho        1 MOL      0.428808
    176 H83        -0.4630    1.0990   -2.1930 ho        1 MOL      0.428808
    177 O24         0.9820   -2.5120   -1.7570 oh        1 MOL     -0.869574
    178 H84         0.1160   -2.3840   -2.1440 ho        1 MOL      0.428808
    179 H85         1.5870   -2.4520   -2.4920 ho        1 MOL      0.428808
    180 O25         3.2580    2.0480   -3.1580 oh        1 MOL     -0.869574
    181 H86         3.1060    2.9670   -3.3890 ho        1 MOL      0.428808
    182 H87         3.8610    1.7330   -3.8380 ho        1 MOL      0.428808
@<TRIPOS>BOND
     1    1    2 1   
     2    1    4 1   
     3    1    5 1   
     4    1    6 1   
     5    2    3 2   
     6    2    7 1   
     7    7    8 1   
     8    7   15 1   
     9    8    9 1   
    10    8   11 1   
    11    8   16 1   
    12    9   10 2   
    13    9   19 1   
    14   11   12 1   
    15   11   17 1   
    16   11   18 1   
    17   12   13 1   
    18   12   14 1   
    19   19   20 1   
    20   19   28 1   
    21   20   21 1   
    22   20   23 1   
    23   20   29 1   
    24   21   22 2   
    25   21   41 1   
    26   23   24 1   
    27   23   30 1   
    28   23   31 1   
    29   24   25 1   
    30   24   32 1   
    31   24   33 1   
    32   25   26 1   
    33   25   34 1   
    34   25   35 1   
    35   26   27 1   
    36   26   36 1   
    37   26   37 1   
    38   27   38 1   
    39   27   39 1   
    40   27   40 1   
    41   41   42 1   
    42   41   49 1   
    43   42   43 1   
    44   42   45 1   
    45   42   50 1   
    46   43   44 2   
    47   43   53 1   
    48   45   46 1   
    49   45   51 1   
    50   45   52 1   
    51   46   47 1   
    52   46   48 1   
    53   53   54 1   
    54   53   57 1   
    55   54   55 1   
    56   54   58 1   
    57   54   59 1   
    58   55   56 2   
    59   55   60 1   
    60   60   61 1   
    61   60   68 1   
    62   61   62 1   
    63   61   64 1   
    64   61   69 1   
    65   62   63 2   
    66   62   74 1   
    67   64   65 1   
    68   64   70 1   
    69   64   71 1   
    70   65   66 1   
    71   65   67 2   
    72   66   72 1   
    73   66   73 1   
    74   74   75 1   
    75   74   78 1   
    76   75   76 1   
    77   75   79 1   
    78   75   80 1   
    79   76   77 2   
    80   76   81 1   
    81   81   82 1   
    82   81   93 1   
    83   82   83 1   
    84   82   85 1   
    85   82   94 1   
    86   83   84 2   
    87   83  102 1   
    88   85   86 1   
    89   85   95 1   
    90   85   96 1   
    91   86   87 ar  
    92   86   88 ar  
    93   87   89 ar  
    94   87   97 1   
    95   88   90 ar  
    96   88   98 1   
    97   89   91 ar  
    98   89   99 1   
    99   90   91 ar  
   100   90  100 1   
   101   91   92 1   
   102   92  101 1   
   103  102  103 1   
   104  102  110 1   
   105  103  104 1   
   106  103  106 1   
   107  103  111 1   
   108  104  105 2   
   109  104  121 1   
   110  106  107 1   
   111  106  108 1   
   112  106  112 1   
   113  107  109 1   
   114  107  113 1   
   115  107  114 1   
   116  108  115 1   
   117  108  116 1   
   118  108  117 1   
   119  109  118 1   
   120  109  119 1   
   121  109  120 1   
   122  121  122 1   
   123  121  127 1   
   124  122  123 1   
   125  122  125 1   
   126  122  128 1   
   127  123  124 2   
   128  123  132 1   
   129  125  126 1   
   130  125  129 1   
   131  125  130 1   
   132  126  131 1   
   133  132  133 1   
   134  132  137 1   
   135  133  134 1   
   136  133  136 1   
   137  133  138 1   
   138  134  135 2   
   139  134  142 1   
   140  136  139 1   
   141  136  140 1   
   142  136  141 1   
   143  142  143 1   
   144  142  147 1   
   145  143  144 1   
   146  143  146 1   
   147  143  148 1   
   148  144  145 2   
   149  144  152 1   
   150  146  149 1   
   151  146  150 1   
   152  146  151 1   
   153  152  153 1   
   154  152  161 1   
   155  153  154 1   
   156  153  156 1   
   157  153  162 1   
   158  154  155 2   
   159  154  167 1   
   160  156  157 1   
   161  156  163 1   
   162  156  164 1   
   163  157  158 1   
   164  157  165 1   
   165  157  166 1   
   166  158  159 1   
   167  158  160 1   
   168  167  168 1   
   169  167  172 1   
   170  168  169 1   
   171  168  170 1   
   172  168  171 1   
   173  174  175 1   
   174  174  176 1   
   175  177  178 1   
   176  177  179 1   
   177  180  181 1   
   178  180  182 1   
@<TRIPOS>SUBSTRUCTURE
     1 MOL         1 TEMP              0 ****  ****    0 ROOT
