@<TRIPOS>MOLECULE
MOL
  179   176     1     0     0
SMALL
resp


@<TRIPOS>ATOM
      1 C1          3.1040    1.3830    6.1740 c3        1 MOL     -0.359635
      2 C2          2.8060    1.5850    4.6440 c         1 MOL      0.632562
      3 O1          3.4550    1.0020    3.7720 o         1 MOL     -0.568483
      4 H1          2.2770    0.8440    6.6370 hc        1 MOL      0.107647
      5 H2          4.0230    0.8100    6.2930 hc        1 MOL      0.107647
      6 H3          3.2160    2.3560    6.6540 hc        1 MOL      0.107647
      7 N1          1.6210    2.1930    4.2680 n         1 MOL     -0.558218
      8 C3          1.1980    2.2420    2.8670 c3        1 MOL     -0.136956
      9 C4          1.6120    3.5120    2.1300 c         1 MOL      0.563951
     10 O2          0.8830    4.5520    2.0560 o         1 MOL     -0.514097
     11 C5         -0.3140    2.0440    2.7420 c3        1 MOL      0.051676
     12 C6         -0.8330    1.7730    1.3070 c         1 MOL      0.312624
     13 O3         -2.0180    1.7350    0.9920 o         1 MOL     -0.645816
     14 O4          0.0650    1.6140    0.4420 o         1 MOL     -0.645816
     15 H4          1.0140    2.5910    4.9590 hn        1 MOL      0.324199
     16 H5          1.6340    1.4220    2.2940 h1        1 MOL      0.106090
     17 H6         -0.9070    2.7070    3.3760 hc        1 MOL      0.048535
     18 H7         -0.5820    1.1340    3.2800 hc        1 MOL      0.048535
     19 N2          2.7190    3.3780    1.3480 n         1 MOL     -0.384713
     20 C7          3.2990    4.4500    0.4720 c3        1 MOL      0.014942
     21 C8          2.4100    5.0690   -0.6080 c         1 MOL      0.477630
     22 O5          2.6230    6.2200   -1.0240 o         1 MOL     -0.523963
     23 C9          4.7410    3.9940   -0.1200 c3        1 MOL     -0.042592
     24 C10         5.5790    5.2270   -0.2230 c3        1 MOL      0.241570
     25 C11         6.9180    5.1290   -1.0360 c3        1 MOL     -0.270680
     26 C12         7.7290    6.3480   -0.7340 c3        1 MOL      0.227039
     27 N3          9.1270    6.1670   -1.2590 n4        1 MOL     -0.517236
     28 H8          3.2210    2.5030    1.3270 hn        1 MOL      0.305781
     29 H9          3.4470    5.2240    1.2160 h1        1 MOL      0.074195
     30 H10         4.6280    3.6250   -1.1460 hc        1 MOL      0.019315
     31 H11         5.2130    3.2640    0.5330 hc        1 MOL      0.019315
     32 H12         5.7810    5.4640    0.8300 hc        1 MOL     -0.046595
     33 H13         5.0350    6.1030   -0.5910 hc        1 MOL     -0.046595
     34 H14         6.5790    5.1580   -2.0670 hc        1 MOL      0.094320
     35 H15         7.4120    4.2230   -0.6890 hc        1 MOL      0.094320
     36 H16         7.8470    6.5330    0.3340 hx        1 MOL      0.048985
     37 H17         7.3350    7.2530   -1.1930 hx        1 MOL      0.048985
     38 H18         9.0800    5.8730   -2.2180 hn        1 MOL      0.364049
     39 H19         9.5970    7.0520   -1.2130 hn        1 MOL      0.364049
     40 H20         9.5690    5.5270   -0.6100 hn        1 MOL      0.364049
     41 N4          1.3310    4.3360   -0.9990 n         1 MOL     -0.313508
     42 C13         0.2600    4.8410   -1.8090 c3        1 MOL      0.096190
     43 C14        -1.0720    5.2430   -1.1630 c         1 MOL      0.341446
     44 O6         -1.8700    5.9780   -1.6770 o         1 MOL     -0.542048
     45 C15        -0.0900    3.9050   -2.9380 c3        1 MOL     -0.419961
     46 C16        -0.5690    2.5690   -2.4940 c         1 MOL      0.755285
     47 O7         -1.6830    2.4580   -1.9160 o         1 MOL     -0.725704
     48 O8          0.1290    1.5430   -2.6090 o         1 MOL     -0.725704
     49 H21         1.2450    3.3540   -0.7900 hn        1 MOL      0.256611
     50 H22         0.6460    5.7630   -2.2380 h1        1 MOL      0.081192
     51 H23         0.7680    3.7890   -3.6060 hc        1 MOL      0.118479
     52 H24        -0.8340    4.3510   -3.5930 hc        1 MOL      0.118479
     53 N5         -1.2680    4.7310    0.0430 n         1 MOL      0.239025
     54 C17        -2.2580    5.1440    0.9830 c3        1 MOL     -0.277267
     55 C18        -3.6520    4.7640    0.6390 c         1 MOL      0.629130
     56 O9         -4.5750    5.4510    1.0580 o         1 MOL     -0.583213
     57 H25        -0.5430    4.1540    0.4540 hn        1 MOL     -0.073580
     58 H26        -2.3190    6.2190    0.8390 h1        1 MOL      0.105902
     59 H27        -2.0080    4.8830    2.0070 h1        1 MOL      0.105902
     60 N6         -3.8690    3.7830   -0.2820 n         1 MOL     -0.355699
     61 C19        -5.1640    3.4360   -0.8850 c3        1 MOL      0.124730
     62 C20        -5.3200    2.0340   -1.3170 c         1 MOL      0.446728
     63 O10        -4.2840    1.2700   -1.5210 o         1 MOL     -0.512210
     64 C21        -5.4410    4.4210   -2.0550 c3        1 MOL     -0.271302
     65 C22        -6.7930    4.3690   -2.7230 c         1 MOL      0.593379
     66 N7         -7.7190    4.6850   -1.9360 n         1 MOL     -0.687957
     67 O11        -7.0090    3.8760   -3.8530 o         1 MOL     -0.570378
     68 H28        -3.0860    3.2490   -0.6240 hn        1 MOL      0.284696
     69 H29        -5.9210    3.6770   -0.1420 h1        1 MOL     -0.013060
     70 H30        -4.7750    4.0200   -2.8270 hc        1 MOL      0.105703
     71 H31        -5.1510    5.4330   -1.7540 hc        1 MOL      0.105703
     72 H32        -7.5240    4.9500   -0.9810 hn        1 MOL      0.343801
     73 H33        -8.6550    4.7940   -2.3090 hn        1 MOL      0.343801
     74 N8         -6.5670    1.5510   -1.4860 n         1 MOL     -0.165487
     75 C23        -6.9350    0.2130   -1.6170 c3        1 MOL     -0.213100
     76 C24        -6.3980   -0.7160   -0.4780 c         1 MOL      0.531142
     77 O12        -6.4680   -0.3720    0.7040 o         1 MOL     -0.498601
     78 H34        -7.2800    2.2650   -1.4810 hn        1 MOL      0.221408
     79 H35        -6.4740   -0.1890   -2.5200 h1        1 MOL      0.095376
     80 H36        -8.0050    0.0260   -1.6940 h1        1 MOL      0.095376
     81 N9         -5.7550   -1.8220   -0.8520 n         1 MOL     -0.456160
     82 C25        -5.1310   -2.7910    0.0510 c3        1 MOL      0.146553
     83 C26        -3.8980   -2.1160    0.8050 c         1 MOL      0.254329
     84 O13        -3.5260   -1.0160    0.4190 o         1 MOL     -0.377843
     85 C27        -4.7220   -4.0060   -0.7450 c3        1 MOL     -0.244550
     86 C28        -5.8890   -4.9020   -1.1230 ca        1 MOL     -0.001954
     87 C29        -6.7210   -4.8130   -2.3340 ca        1 MOL     -0.033912
     88 C30        -6.1760   -5.9360   -0.1820 ca        1 MOL     -0.033912
     89 C31        -7.7230   -5.7510   -2.4190 ca        1 MOL     -0.370376
     90 C32        -7.2630   -6.8060   -0.2560 ca        1 MOL     -0.370376
     91 C33        -8.0790   -6.6900   -1.4240 ca        1 MOL      0.437774
     92 O14        -9.0490   -7.6500   -1.7250 oh        1 MOL     -0.521611
     93 H37        -5.5520   -1.9000   -1.8360 hn        1 MOL      0.301202
     94 H38        -5.9250   -3.0000    0.7740 h1        1 MOL      0.087846
     95 H39        -4.0060   -4.5410   -0.1100 hc        1 MOL      0.051130
     96 H40        -4.3180   -3.5750   -1.6630 hc        1 MOL      0.051130
     97 H41        -6.4370   -4.0310   -3.0180 ha        1 MOL      0.105787
     98 H42        -5.6350   -6.1240    0.7320 ha        1 MOL      0.105787
     99 H43        -8.2330   -5.7810   -3.3670 ha        1 MOL      0.180687
    100 H44        -7.4660   -7.5710    0.4890 ha        1 MOL      0.180687
    101 H45        -9.0140   -8.4370   -1.1730 ho        1 MOL      0.380533
    102 N10        -3.4660   -2.7040    1.9350 n         1 MOL     -0.275456
    103 C34        -2.5570   -2.1830    2.9360 c3        1 MOL      0.072334
    104 C35        -1.2000   -1.9060    2.4430 c         1 MOL      0.507645
    105 O15        -0.9620   -1.2470    1.4100 o         1 MOL     -0.469547
    106 C36        -3.1480   -0.9160    3.6680 c3        1 MOL      0.213906
    107 C37        -2.3880   -0.3870    4.9260 c3        1 MOL     -0.110893
    108 C38        -4.6610   -1.0750    3.9230 c3        1 MOL     -0.208808
    109 C39        -2.5160   -1.3550    6.1910 c3        1 MOL     -0.110836
    110 H46        -3.9240   -3.5880    2.1160 hn        1 MOL      0.230716
    111 H47        -2.3850   -2.9630    3.6660 h1        1 MOL      0.014101
    112 H48        -3.0170   -0.1590    2.8980 hc        1 MOL      0.011893
    113 H49        -2.6990    0.6470    5.1190 hc        1 MOL      0.056315
    114 H50        -1.3250   -0.2960    4.7040 hc        1 MOL      0.056315
    115 H51        -4.9960   -0.2460    4.5340 hc        1 MOL      0.050081
    116 H52        -5.2670   -1.2100    3.0290 hc        1 MOL      0.050081
    117 H53        -4.8130   -1.9880    4.5110 hc        1 MOL      0.050081
    118 H54        -3.5540   -1.5500    6.4660 hc        1 MOL      0.022250
    119 H55        -2.0430   -2.2870    5.8830 hc        1 MOL      0.022250
    120 H56        -1.9620   -0.9250    7.0260 hc        1 MOL      0.022250
    121 N11        -0.1720   -2.3690    3.1090 n         1 MOL     -0.721080
    122 C40         1.2610   -1.7490    3.0940 c3        1 MOL      0.132071
    123 C41         2.0760   -2.0170    1.8340 c         1 MOL      0.358785
    124 O16         3.1460   -1.4740    1.6060 o         1 MOL     -0.490739
    125 C42         2.1200   -2.2180    4.2950 c3        1 MOL      0.063850
    126 O17         1.1660   -2.2870    5.3720 oh        1 MOL     -0.583100
    127 H57        -0.4320   -2.9100    3.9180 hn        1 MOL      0.354468
    128 H58         1.2350   -0.6640    3.1980 h1        1 MOL      0.273375
    129 H59         2.8720   -1.4780    4.5550 h1        1 MOL      0.084798
    130 H60         2.5910   -3.1780    4.0780 h1        1 MOL      0.084798
    131 H61         1.1950   -3.2020    5.6380 ho        1 MOL      0.379057
    132 N12         1.5570   -2.8390    0.8870 n         1 MOL     -0.328597
    133 C43         2.2080   -3.1280   -0.4020 c3        1 MOL     -0.226189
    134 C44         1.9920   -1.9620   -1.4320 c         1 MOL      0.910047
    135 O18         0.8970   -1.4490   -1.4940 o         1 MOL     -0.685163
    136 C45         1.8140   -4.4850   -1.0440 c3        1 MOL     -0.174562
    137 H62         0.6200   -3.2190    0.9790 hn        1 MOL      0.298224
    138 H63         3.2520   -3.1310   -0.0830 h1        1 MOL      0.182128
    139 H64         1.7960   -5.2780   -0.2970 hc        1 MOL      0.061339
    140 H65         0.7860   -4.4160   -1.4220 hc        1 MOL      0.061339
    141 H66         2.5330   -4.7130   -1.8340 hc        1 MOL      0.061339
    142 N13         2.9830   -1.5730   -2.2440 n         1 MOL     -0.902223
    143 C46         4.4570   -1.6950   -2.0080 c3        1 MOL      0.596668
    144 C47         5.0480   -3.0730   -2.3720 c         1 MOL      0.487659
    145 O19         4.6200   -3.7660   -3.2930 o         1 MOL     -0.544038
    146 C48         5.1190   -0.5990   -2.7940 c3        1 MOL     -0.299340
    147 H67         2.6140   -1.0520   -3.0270 hn        1 MOL      0.396067
    148 H68         4.6950   -1.5270   -0.9560 h1        1 MOL     -0.028623
    149 H69         4.7100   -0.6020   -3.8090 hc        1 MOL      0.073710
    150 H70         5.0270    0.3970   -2.3530 hc        1 MOL      0.073710
    151 H71         6.1750   -0.8620   -2.8660 hc        1 MOL      0.073710
    152 N14         6.2190   -3.4980   -1.7890 n         1 MOL     -0.530259
    153 C49         6.9390   -3.1100   -0.5400 c3        1 MOL     -0.360709
    154 C50         7.2500   -4.2680    0.4150 c         1 MOL      0.649642
    155 O20         7.2660   -4.0620    1.5820 o         1 MOL     -0.570874
    156 C51         8.3030   -2.4910   -0.9130 c3        1 MOL      0.196869
    157 C52         9.2890   -3.2310   -1.7800 c3        1 MOL     -0.085007
    158 C53         8.7280   -3.5800   -3.2340 c         1 MOL      0.710396
    159 O21         8.9000   -2.7620   -4.1360 o         1 MOL     -0.684275
    160 O22         8.0890   -4.6350   -3.3130 o         1 MOL     -0.684275
    161 H72         6.6320   -4.2290   -2.3610 hn        1 MOL      0.338627
    162 H73         6.3840   -2.3710    0.0410 h1        1 MOL      0.148189
    163 H74         8.8250   -2.2700    0.0210 hc        1 MOL     -0.038176
    164 H75         8.1000   -1.5230   -1.3700 hc        1 MOL     -0.038176
    165 H76         9.6480   -4.1390   -1.2980 hc        1 MOL     -0.033692
    166 H77        10.1690   -2.6050   -1.9410 hc        1 MOL     -0.033692
    167 N15         7.4330   -5.4780   -0.0980 n         1 MOL     -0.253541
    168 C54         7.4190   -6.8060    0.6830 c3        1 MOL     -0.220286
    169 H78         6.4440   -6.9400    1.1530 h1        1 MOL      0.101433
    170 H79         7.6100   -7.6330   -0.0010 h1        1 MOL      0.101433
    171 H80         8.1920   -6.7840    1.4520 h1        1 MOL      0.101433
    172 H81         7.5500   -5.5250   -1.1030 hn        1 MOL      0.212052
    173 Ca1        -1.5460    0.0380   -1.0180 Ca        1 MOL      1.787504
    174 O23        -1.6520   -2.7370   -1.2090 oh        1 MOL     -0.857112
    175 H82        -1.5810   -2.8290   -2.1650 ho        1 MOL      0.424930
    176 H83        -1.4700   -3.6150   -0.8710 ho        1 MOL      0.424930
    177 O24        -2.2940   -0.7950   -3.3320 oh        1 MOL     -0.857112
    178 H84        -1.7440   -0.9770   -4.0950 ho        1 MOL      0.424930
    179 H85        -3.0720   -1.3250   -3.4750 ho        1 MOL      0.424930
@<TRIPOS>BOND
     1    1    2 1   
     2    1    4 1   
     3    1    5 1   
     4    1    6 1   
     5    2    3 2   
     6    2    7 1   
     7    7    8 1   
     8    7   15 1   
     9    8    9 1   
    10    8   11 1   
    11    8   16 1   
    12    9   10 2   
    13    9   19 1   
    14   11   12 1   
    15   11   17 1   
    16   11   18 1   
    17   12   13 1   
    18   12   14 1   
    19   19   20 1   
    20   19   28 1   
    21   20   21 1   
    22   20   23 1   
    23   20   29 1   
    24   21   22 2   
    25   21   41 1   
    26   23   24 1   
    27   23   30 1   
    28   23   31 1   
    29   24   25 1   
    30   24   32 1   
    31   24   33 1   
    32   25   26 1   
    33   25   34 1   
    34   25   35 1   
    35   26   27 1   
    36   26   36 1   
    37   26   37 1   
    38   27   38 1   
    39   27   39 1   
    40   27   40 1   
    41   41   42 1   
    42   41   49 1   
    43   42   43 1   
    44   42   45 1   
    45   42   50 1   
    46   43   44 2   
    47   43   53 1   
    48   45   46 1   
    49   45   51 1   
    50   45   52 1   
    51   46   47 1   
    52   46   48 1   
    53   53   54 1   
    54   53   57 1   
    55   54   55 1   
    56   54   58 1   
    57   54   59 1   
    58   55   56 2   
    59   55   60 1   
    60   60   61 1   
    61   60   68 1   
    62   61   62 1   
    63   61   64 1   
    64   61   69 1   
    65   62   63 2   
    66   62   74 1   
    67   64   65 1   
    68   64   70 1   
    69   64   71 1   
    70   65   66 1   
    71   65   67 2   
    72   66   72 1   
    73   66   73 1   
    74   74   75 1   
    75   74   78 1   
    76   75   76 1   
    77   75   79 1   
    78   75   80 1   
    79   76   77 2   
    80   76   81 1   
    81   81   82 1   
    82   81   93 1   
    83   82   83 1   
    84   82   85 1   
    85   82   94 1   
    86   83   84 2   
    87   83  102 1   
    88   85   86 1   
    89   85   95 1   
    90   85   96 1   
    91   86   87 ar  
    92   86   88 ar  
    93   87   89 ar  
    94   87   97 1   
    95   88   90 ar  
    96   88   98 1   
    97   89   91 ar  
    98   89   99 1   
    99   90   91 ar  
   100   90  100 1   
   101   91   92 1   
   102   92  101 1   
   103  102  103 1   
   104  102  110 1   
   105  103  104 1   
   106  103  106 1   
   107  103  111 1   
   108  104  105 2   
   109  104  121 1   
   110  106  107 1   
   111  106  108 1   
   112  106  112 1   
   113  107  109 1   
   114  107  113 1   
   115  107  114 1   
   116  108  115 1   
   117  108  116 1   
   118  108  117 1   
   119  109  118 1   
   120  109  119 1   
   121  109  120 1   
   122  121  122 1   
   123  121  127 1   
   124  122  123 1   
   125  122  125 1   
   126  122  128 1   
   127  123  124 2   
   128  123  132 1   
   129  125  126 1   
   130  125  129 1   
   131  125  130 1   
   132  126  131 1   
   133  132  133 1   
   134  132  137 1   
   135  133  134 1   
   136  133  136 1   
   137  133  138 1   
   138  134  135 2   
   139  134  142 1   
   140  136  139 1   
   141  136  140 1   
   142  136  141 1   
   143  142  143 1   
   144  142  147 1   
   145  143  144 1   
   146  143  146 1   
   147  143  148 1   
   148  144  145 2   
   149  144  152 1   
   150  146  149 1   
   151  146  150 1   
   152  146  151 1   
   153  152  153 1   
   154  152  161 1   
   155  153  154 1   
   156  153  156 1   
   157  153  162 1   
   158  154  155 2   
   159  154  167 1   
   160  156  157 1   
   161  156  163 1   
   162  156  164 1   
   163  157  158 1   
   164  157  165 1   
   165  157  166 1   
   166  158  159 1   
   167  158  160 1   
   168  167  168 1   
   169  167  172 1   
   170  168  169 1   
   171  168  170 1   
   172  168  171 1   
   173  174  175 1   
   174  174  176 1   
   175  177  178 1   
   176  177  179 1   
@<TRIPOS>SUBSTRUCTURE
     1 MOL         1 TEMP              0 ****  ****    0 ROOT
