@<TRIPOS>MOLECULE
MOL
  192   187     1     0     0
SMALL
resp


@<TRIPOS>ATOM
      1 C1        -11.3210    0.0700   -1.2030 c3        1 MOL     -0.456937
      2 C2         -9.8140   -0.3090   -1.0420 c         1 MOL      0.629726
      3 O1         -9.2090   -0.8970   -1.9330 o         1 MOL     -0.640967
      4 H1        -11.9040   -0.4240   -0.4260 hc        1 MOL      0.125697
      5 H2        -11.4360    1.1500   -1.1120 hc        1 MOL      0.125697
      6 H3        -11.6740   -0.2530   -2.1830 hc        1 MOL      0.125697
      7 N1         -9.2180    0.1480    0.0820 n         1 MOL     -0.384442
      8 C3         -7.8310   -0.0210    0.4320 c3        1 MOL      0.073009
      9 C4         -7.5420   -1.5150    0.7990 c         1 MOL      0.298000
     10 O2         -8.2410   -2.1420    1.6790 o         1 MOL     -0.471056
     11 C5         -7.4430    0.7950    1.6350 c3        1 MOL      0.176393
     12 C6         -8.4350    0.8250    2.8510 c         1 MOL      0.547652
     13 O3         -7.8950    0.7990    3.9610 o         1 MOL     -0.598541
     14 O4         -9.7100    0.8690    2.6790 o         1 MOL     -0.598541
     15 H4         -9.7720    0.5930    0.8050 hn        1 MOL      0.183767
     16 H5         -7.1740    0.2500   -0.3930 h1        1 MOL      0.010996
     17 H6         -7.3720    1.8160    1.2420 hc        1 MOL     -0.049964
     18 H7         -6.4010    0.7300    1.9320 hc        1 MOL     -0.049964
     19 N2         -6.6690   -2.2270    0.0810 n         1 MOL     -0.068316
     20 C7         -6.2500   -3.6600    0.1610 c3        1 MOL     -0.169422
     21 C8         -4.9360   -3.9190    0.9010 c         1 MOL      0.742480
     22 O5         -4.7790   -4.9260    1.5170 o         1 MOL     -0.565411
     23 C9         -6.1120   -4.1900   -1.2890 c3        1 MOL      0.070481
     24 C10        -7.5160   -4.1660   -1.8770 c3        1 MOL      0.006067
     25 C11        -7.5570   -4.9670   -3.1850 c3        1 MOL     -0.235694
     26 C12        -8.9070   -4.5590   -3.9150 c3        1 MOL      0.251764
     27 N3         -9.0920   -5.3100   -5.1570 n4        1 MOL     -0.464240
     28 H8         -6.2760   -1.7040   -0.6880 hn        1 MOL      0.117660
     29 H9         -7.0250   -4.2790    0.5970 h1        1 MOL      0.090418
     30 H10        -5.6790   -5.1930   -1.2680 hc        1 MOL      0.012636
     31 H11        -5.3810   -3.7050   -1.9380 hc        1 MOL      0.012636
     32 H12        -7.6520   -3.1410   -2.2390 hc        1 MOL      0.062514
     33 H13        -8.2910   -4.4990   -1.1880 hc        1 MOL      0.062514
     34 H14        -7.7000   -6.0270   -2.9370 hc        1 MOL      0.066227
     35 H15        -6.7230   -4.7070   -3.8350 hc        1 MOL      0.066227
     36 H16        -8.8190   -3.4760   -4.0570 hx        1 MOL      0.034735
     37 H17        -9.7940   -4.5590   -3.2790 hx        1 MOL      0.034735
     38 H18       -10.0520   -5.1410   -5.4090 hn        1 MOL      0.325597
     39 H19        -8.4690   -4.9500   -5.8640 hn        1 MOL      0.325597
     40 H20        -8.8690   -6.2880   -5.0680 hn        1 MOL      0.325597
     41 N4         -3.8200   -3.1260    0.7020 n         1 MOL     -0.635846
     42 C13        -3.6420   -1.9000   -0.1620 c3        1 MOL      0.021658
     43 C14        -3.6450   -0.5960    0.6980 c         1 MOL      0.224719
     44 O6         -3.6200   -0.5320    1.9390 o         1 MOL     -0.386832
     45 C15        -2.4290   -1.9780   -1.0630 c3        1 MOL     -0.106169
     46 C16        -1.1380   -2.1600   -0.3360 c         1 MOL      0.812143
     47 O7         -0.8510   -1.4940    0.7170 o         1 MOL     -0.730848
     48 O8         -0.2370   -2.8330   -0.8690 o         1 MOL     -0.730848
     49 H21        -3.0940   -3.2400    1.4030 hn        1 MOL      0.372899
     50 H22        -4.4920   -1.9290   -0.8560 h1        1 MOL      0.074133
     51 H23        -2.4160   -1.1130   -1.7230 hc        1 MOL      0.040116
     52 H24        -2.5880   -2.8060   -1.7430 hc        1 MOL      0.040116
     53 N5         -3.8990    0.5230   -0.0060 n         1 MOL     -0.281207
     54 C17        -4.1450    1.8530    0.6240 c3        1 MOL      0.045880
     55 C18        -2.9090    2.5350    1.0380 c         1 MOL      0.566243
     56 O9         -1.8180    1.9370    0.9340 o         1 MOL     -0.516122
     57 H25        -3.9200    0.4520   -1.0050 hn        1 MOL      0.238149
     58 H26        -4.8100    1.9430    1.4870 h1        1 MOL      0.051520
     59 H27        -4.5560    2.4430   -0.1960 h1        1 MOL      0.051520
     60 N6         -2.9750    3.7580    1.4820 n         1 MOL     -0.475465
     61 C19        -1.8310    4.5190    1.9330 c3        1 MOL      0.086120
     62 C20        -2.0350    6.0110    1.7290 c         1 MOL      0.421363
     63 O10        -3.1610    6.4990    1.5090 o         1 MOL     -0.521584
     64 C21        -1.6280    4.3850    3.4810 c3        1 MOL     -0.011441
     65 C22        -1.1520    2.9650    3.7610 c         1 MOL      0.574212
     66 O11        -0.0520    2.6670    3.1830 o         1 MOL     -0.640400
     67 O12        -1.8580    2.2130    4.4670 o         1 MOL     -0.640400
     68 H28        -3.8330    4.2760    1.3720 hn        1 MOL      0.288327
     69 H29        -0.9710    4.1770    1.3610 h1        1 MOL      0.104809
     70 H30        -2.4660    4.6000    4.1510 hc        1 MOL      0.027209
     71 H31        -0.8380    5.0470    3.8380 hc        1 MOL      0.027209
     72 N7         -1.0150    6.8760    1.7180 n         1 MOL     -0.435894
     73 C23         0.4320    6.6120    1.8170 c3        1 MOL      0.121913
     74 C24         1.0950    6.3730    0.4270 c         1 MOL      0.530078
     75 O13         0.7310    6.9770   -0.5700 o         1 MOL     -0.491862
     76 H32        -1.2860    7.8250    1.5270 hn        1 MOL      0.302261
     77 H33         0.4880    5.6670    2.3650 h1        1 MOL      0.013117
     78 H34         0.9030    7.4140    2.3810 h1        1 MOL      0.013117
     79 N8          2.0630    5.3980    0.4410 n         1 MOL     -0.577696
     80 C25         2.4850    4.5790   -0.6500 c3        1 MOL      0.063521
     81 C26         1.4590    3.4100   -0.8650 c         1 MOL      0.734118
     82 O14         1.0600    2.7260    0.0940 o         1 MOL     -0.678597
     83 C27         3.9570    4.2170   -0.5420 c3        1 MOL      0.228766
     84 C28         4.3940    3.2300   -1.6010 c3        1 MOL     -0.012120
     85 O15         4.0960    3.5210    0.6860 oh        1 MOL     -0.625259
     86 H35         2.3190    4.9810    1.3300 hn        1 MOL      0.261824
     87 H36         2.3960    5.2160   -1.5230 h1        1 MOL      0.039298
     88 H37         4.6490    5.0580   -0.5970 h1        1 MOL      0.047025
     89 H38         4.0490    4.1390    1.4150 ho        1 MOL      0.420191
     90 H39         4.2520    3.7160   -2.5610 hc        1 MOL     -0.003833
     91 H40         5.4690    3.0700   -1.5000 hc        1 MOL     -0.003833
     92 H41         3.8900    2.2640   -1.5900 hc        1 MOL     -0.003833
     93 N9          1.0820    3.2460   -2.1650 n         1 MOL     -0.510920
     94 C29         0.1600    2.2470   -2.7730 c3        1 MOL      0.292280
     95 C30         0.6310    0.9360   -2.2600 c         1 MOL      0.009430
     96 O16         0.1220    0.4730   -1.2480 o         1 MOL     -0.510262
     97 C31        -1.3440    2.5810   -2.5490 c3        1 MOL      0.148500
     98 C32        -1.9360    4.0100   -2.7620 c3        1 MOL     -0.207940
     99 C33        -2.1910    1.5640   -3.3610 c3        1 MOL     -0.443418
    100 C34        -1.9820    4.5610   -4.1530 c3        1 MOL     -0.360018
    101 H42         1.5360    3.9140   -2.7680 hn        1 MOL      0.264436
    102 H43         0.4070    2.3150   -3.8230 h1        1 MOL      0.031355
    103 H44        -1.5300    2.5430   -1.4780 hc        1 MOL     -0.026579
    104 H45        -1.3520    4.7600   -2.2330 hc        1 MOL      0.113695
    105 H46        -2.9420    4.0840   -2.3420 hc        1 MOL      0.113695
    106 H47        -3.1910    1.4500   -2.9380 hc        1 MOL      0.119300
    107 H48        -2.2980    1.8720   -4.4050 hc        1 MOL      0.119300
    108 H49        -1.7420    0.5730   -3.4510 hc        1 MOL      0.119300
    109 H50        -1.0560    4.2740   -4.6540 hc        1 MOL      0.102542
    110 H51        -2.8520    4.1330   -4.6520 hc        1 MOL      0.102542
    111 H52        -2.2200    5.6250   -4.1950 hc        1 MOL      0.102542
    112 N10         1.6430    0.3740   -2.9560 n         1 MOL     -0.151717
    113 C35         2.1320   -0.9590   -2.6830 c3        1 MOL     -0.032258
    114 C36         3.6300   -1.0380   -2.7840 c         1 MOL      0.551475
    115 O17         4.1340   -2.1290   -2.6250 o         1 MOL     -0.555006
    116 C37         1.4310   -1.8870   -3.6820 c3        1 MOL      0.385207
    117 C38         1.9560   -1.6950   -5.1010 c3        1 MOL     -0.178177
    118 O18         0.0080   -1.9510   -3.6070 oh        1 MOL     -0.604571
    119 H53         1.9840    0.8790   -3.7600 hn        1 MOL      0.242436
    120 H54         1.8670   -1.3750   -1.7190 h1        1 MOL      0.188202
    121 H55         1.7610   -2.8600   -3.3090 h1        1 MOL     -0.015810
    122 H56        -0.1580   -2.0060   -2.6640 ho        1 MOL      0.367050
    123 H57         2.9430   -2.1320   -5.1750 hc        1 MOL      0.032696
    124 H58         1.3220   -2.1600   -5.8470 hc        1 MOL      0.032696
    125 H59         1.9780   -0.6400   -5.3960 hc        1 MOL      0.032696
    126 N11         4.3830    0.0610   -2.9750 n         1 MOL     -0.301961
    127 C39         5.9090    0.0520   -3.0820 c3        1 MOL      0.015666
    128 C40         6.6590   -0.2060   -1.7810 c         1 MOL      0.542805
    129 O19         7.2580    0.6820   -1.1260 o         1 MOL     -0.515147
    130 C41         6.5640    1.3230   -3.6650 c3        1 MOL      0.550201
    131 C42         7.8960    0.9490   -4.3700 c3        1 MOL     -0.417180
    132 O20         5.7800    1.9400   -4.6120 oh        1 MOL     -0.638277
    133 H60         3.9010    0.9050   -3.2270 hn        1 MOL      0.130943
    134 H61         6.2030   -0.8090   -3.6840 h1        1 MOL      0.029114
    135 H62         6.8700    2.0650   -2.9160 h1        1 MOL     -0.055565
    136 H63         6.0660    2.8570   -4.5860 ho        1 MOL      0.391071
    137 H64         8.6070    0.5330   -3.6680 hc        1 MOL      0.092613
    138 H65         7.8370    0.3140   -5.2520 hc        1 MOL      0.092613
    139 H66         8.3070    1.8810   -4.7520 hc        1 MOL      0.092613
    140 N12         6.7310   -1.4890   -1.5360 n         1 MOL     -0.635793
    141 C43         6.8590   -2.2330   -0.2230 c3        1 MOL      0.128044
    142 C44         5.6050   -1.8820    0.6810 c         1 MOL      0.482053
    143 O21         5.1440   -0.7500    0.6570 o         1 MOL     -0.489246
    144 C45         8.1380   -1.8190    0.5280 c3        1 MOL     -0.304668
    145 C46         9.4320   -2.2940   -0.1060 c3        1 MOL      0.133937
    146 C47        10.5410   -1.9180    0.8340 c3        1 MOL      0.108516
    147 C48        11.9170   -2.4710    0.4230 c3        1 MOL     -0.025990
    148 N13        12.3200   -1.9720   -0.8630 n4        1 MOL     -0.156390
    149 H67         6.3020   -1.9680   -2.3150 hn        1 MOL      0.339831
    150 H68         6.8820   -3.2950   -0.4280 h1        1 MOL      0.078776
    151 H69         8.0580   -2.2920    1.5050 hc        1 MOL      0.127009
    152 H70         8.2300   -0.7520    0.6890 hc        1 MOL      0.127009
    153 H71         9.6240   -1.8430   -1.0780 hc        1 MOL     -0.020484
    154 H72         9.4510   -3.3900   -0.0780 hc        1 MOL     -0.020484
    155 H73        10.2820   -2.3470    1.7970 hc        1 MOL      0.005672
    156 H74        10.5450   -0.8390    0.9320 hc        1 MOL      0.005672
    157 H75        11.9270   -3.5530    0.3840 hx        1 MOL      0.066506
    158 H76        12.6010   -2.1160    1.1950 hx        1 MOL      0.066506
    159 H77        12.9230   -1.1670   -0.7410 hn        1 MOL      0.205933
    160 H78        12.8670   -2.6770   -1.3320 hn        1 MOL      0.205933
    161 H79        11.5900   -1.7430   -1.5170 hn        1 MOL      0.205933
    162 N14         5.0120   -2.8320    1.4280 n         1 MOL     -0.488417
    163 C49         3.9470   -2.5710    2.4390 c3        1 MOL      0.433479
    164 C50         2.5460   -2.4560    1.8080 c         1 MOL      0.262978
    165 O22         1.8360   -1.4820    1.9700 o         1 MOL     -0.468828
    166 C51         4.0280   -3.6740    3.5620 c3        1 MOL     -0.034908
    167 C52         5.2580   -3.5670    4.4200 c3        1 MOL     -0.278152
    168 C53         5.0810   -4.5890    5.5840 c         1 MOL      0.749836
    169 O23         5.4260   -5.7570    5.3910 o         1 MOL     -0.650267
    170 O24         4.7240   -4.2480    6.7420 o         1 MOL     -0.650267
    171 H80         5.4440   -3.7460    1.3820 hn        1 MOL      0.289338
    172 H81         4.1260   -1.6650    3.0350 h1        1 MOL     -0.034691
    173 H82         3.9430   -4.6120    3.0170 hc        1 MOL      0.035083
    174 H83         3.1230   -3.6020    4.1630 hc        1 MOL      0.035083
    175 H84         5.3310   -2.5930    4.9040 hc        1 MOL      0.025806
    176 H85         6.1470   -3.7980    3.8200 hc        1 MOL      0.025806
    177 N15         2.0390   -3.3780    0.9830 n         1 MOL     -0.253558
    178 C54         2.4770   -4.6970    0.5820 c3        1 MOL     -0.067092
    179 H86         1.7170   -5.1540   -0.0510 h1        1 MOL      0.044539
    180 H87         3.4120   -4.6170    0.0280 h1        1 MOL      0.044539
    181 H88         2.6300   -5.3150    1.4680 h1        1 MOL      0.044539
    182 H89         1.1930   -3.0240    0.5440 hn        1 MOL      0.291798
    183 Ca1         0.4160    0.6150    1.4730 Ca        1 MOL      1.802892
    184 O25        -0.5590   -0.1950    3.9580 oh        1 MOL     -0.951429
    185 H90        -0.7650   -0.7180    4.7330 ho        1 MOL      0.448626
    186 H91        -1.2110    0.5040    3.9470 ho        1 MOL      0.448626
    187 O26         2.3210    0.7910    3.4060 oh        1 MOL     -0.951429
    188 H92         1.9240    0.4560    4.2060 ho        1 MOL      0.448626
    189 H93         3.1640    1.1490    3.6810 ho        1 MOL      0.448626
    190 O27         2.9370    0.7100    0.2370 oh        1 MOL     -0.951429
    191 H94         3.4980    0.1290    0.7450 ho        1 MOL      0.448626
    192 H95         3.3090    1.5790    0.3620 ho        1 MOL      0.448626
@<TRIPOS>BOND
     1    1    2 1   
     2    1    4 1   
     3    1    5 1   
     4    1    6 1   
     5    2    3 2   
     6    2    7 1   
     7    7    8 1   
     8    7   15 1   
     9    8    9 1   
    10    8   11 1   
    11    8   16 1   
    12    9   10 2   
    13    9   19 1   
    14   11   12 1   
    15   11   17 1   
    16   11   18 1   
    17   12   13 1   
    18   12   14 1   
    19   19   20 1   
    20   19   28 1   
    21   20   21 1   
    22   20   23 1   
    23   20   29 1   
    24   21   22 2   
    25   21   41 1   
    26   23   24 1   
    27   23   30 1   
    28   23   31 1   
    29   24   25 1   
    30   24   32 1   
    31   24   33 1   
    32   25   26 1   
    33   25   34 1   
    34   25   35 1   
    35   26   27 1   
    36   26   36 1   
    37   26   37 1   
    38   27   38 1   
    39   27   39 1   
    40   27   40 1   
    41   41   42 1   
    42   41   49 1   
    43   42   43 1   
    44   42   45 1   
    45   42   50 1   
    46   43   44 2   
    47   43   53 1   
    48   45   46 1   
    49   45   51 1   
    50   45   52 1   
    51   46   47 1   
    52   46   48 1   
    53   53   54 1   
    54   53   57 1   
    55   54   55 1   
    56   54   58 1   
    57   54   59 1   
    58   55   56 2   
    59   55   60 1   
    60   60   61 1   
    61   60   68 1   
    62   61   62 1   
    63   61   64 1   
    64   61   69 1   
    65   62   63 2   
    66   62   72 1   
    67   64   65 1   
    68   64   70 1   
    69   64   71 1   
    70   65   66 1   
    71   65   67 1   
    72   72   73 1   
    73   72   76 1   
    74   73   74 1   
    75   73   77 1   
    76   73   78 1   
    77   74   75 2   
    78   74   79 1   
    79   79   80 1   
    80   79   86 1   
    81   80   81 1   
    82   80   83 1   
    83   80   87 1   
    84   81   82 2   
    85   81   93 1   
    86   83   84 1   
    87   83   85 1   
    88   83   88 1   
    89   84   90 1   
    90   84   91 1   
    91   84   92 1   
    92   85   89 1   
    93   93   94 1   
    94   93  101 1   
    95   94   95 1   
    96   94   97 1   
    97   94  102 1   
    98   95   96 2   
    99   95  112 1   
   100   97   98 1   
   101   97   99 1   
   102   97  103 1   
   103   98  100 1   
   104   98  104 1   
   105   98  105 1   
   106   99  106 1   
   107   99  107 1   
   108   99  108 1   
   109  100  109 1   
   110  100  110 1   
   111  100  111 1   
   112  112  113 1   
   113  112  119 1   
   114  113  114 1   
   115  113  116 1   
   116  113  120 1   
   117  114  115 2   
   118  114  126 1   
   119  116  117 1   
   120  116  118 1   
   121  116  121 1   
   122  117  123 1   
   123  117  124 1   
   124  117  125 1   
   125  118  122 1   
   126  126  127 1   
   127  126  133 1   
   128  127  128 1   
   129  127  130 1   
   130  127  134 1   
   131  128  129 2   
   132  128  140 1   
   133  130  131 1   
   134  130  132 1   
   135  130  135 1   
   136  131  137 1   
   137  131  138 1   
   138  131  139 1   
   139  132  136 1   
   140  140  141 1   
   141  140  149 1   
   142  141  142 1   
   143  141  144 1   
   144  141  150 1   
   145  142  143 2   
   146  142  162 1   
   147  144  145 1   
   148  144  151 1   
   149  144  152 1   
   150  145  146 1   
   151  145  153 1   
   152  145  154 1   
   153  146  147 1   
   154  146  155 1   
   155  146  156 1   
   156  147  148 1   
   157  147  157 1   
   158  147  158 1   
   159  148  159 1   
   160  148  160 1   
   161  148  161 1   
   162  162  163 1   
   163  162  171 1   
   164  163  164 1   
   165  163  166 1   
   166  163  172 1   
   167  164  165 2   
   168  164  177 1   
   169  166  167 1   
   170  166  173 1   
   171  166  174 1   
   172  167  168 1   
   173  167  175 1   
   174  167  176 1   
   175  168  169 1   
   176  168  170 1   
   177  177  178 1   
   178  177  182 1   
   179  178  179 1   
   180  178  180 1   
   181  178  181 1   
   182  184  185 1   
   183  184  186 1   
   184  187  188 1   
   185  187  189 1   
   186  190  191 1   
   187  190  192 1   
@<TRIPOS>SUBSTRUCTURE
     1 MOL         1 TEMP              0 ****  ****    0 ROOT
