@<TRIPOS>MOLECULE
MOL
  192   187     1     0     0
SMALL
resp


@<TRIPOS>ATOM
      1 C1         -6.6470   -1.9150    3.0150 c3        1 MOL     -0.001929
      2 C2         -5.4110   -2.0660    2.1240 c         1 MOL      0.630998
      3 O1         -4.6480   -1.1490    1.7710 o         1 MOL     -0.467255
      4 H1         -7.2790   -1.1160    2.6270 hc        1 MOL     -0.027942
      5 H2         -7.2070   -2.8500    3.0210 hc        1 MOL     -0.027942
      6 H3         -6.3360   -1.6700    4.0310 hc        1 MOL     -0.027942
      7 N1         -5.1810   -3.3400    1.6970 n         1 MOL     -0.707149
      8 C3         -4.2150   -3.7240    0.7560 c3        1 MOL      0.348255
      9 C4         -2.7610   -3.7260    1.3090 c         1 MOL      0.531316
     10 O2         -1.8040   -3.6500    0.5310 o         1 MOL     -0.557188
     11 C5         -4.5050   -3.1680   -0.6340 c3        1 MOL     -0.603720
     12 C6         -5.9500   -3.3170   -1.0330 c         1 MOL      0.999433
     13 O3         -6.3080   -4.3950   -1.5260 o         1 MOL     -0.784453
     14 O4         -6.7380   -2.3680   -0.9450 o         1 MOL     -0.784453
     15 H4         -5.6830   -4.1230    2.0860 hn        1 MOL      0.354112
     16 H5         -4.5340   -4.7460    0.5590 h1        1 MOL     -0.009685
     17 H6         -3.8830   -3.7830   -1.2900 hc        1 MOL      0.156933
     18 H7         -4.2950   -2.0980   -0.6160 hc        1 MOL      0.156933
     19 N2         -2.5150   -3.7790    2.6040 n         1 MOL     -0.511748
     20 C7         -1.2360   -3.4100    3.2950 c3        1 MOL      0.213622
     21 C8         -0.5770   -4.7940    3.4940 c         1 MOL      0.415601
     22 O5         -0.9970   -5.6450    4.2570 o         1 MOL     -0.599464
     23 C9         -1.4380   -2.5830    4.5170 c3        1 MOL      0.015185
     24 C10        -2.0660   -1.2200    4.1010 c3        1 MOL      0.389933
     25 C11        -0.0930   -2.3690    5.2420 c3        1 MOL     -0.307911
     26 C12        -2.4270   -0.2630    5.2290 c3        1 MOL     -0.203204
     27 H8         -3.2640   -3.9670    3.2570 hn        1 MOL      0.248512
     28 H9         -0.5760   -2.7860    2.6940 h1        1 MOL      0.113779
     29 H10        -2.2360   -3.0090    5.1160 hc        1 MOL     -0.024490
     30 H11        -2.9450   -1.3830    3.4880 hc        1 MOL     -0.118193
     31 H12        -1.3500   -0.7290    3.4350 hc        1 MOL     -0.118193
     32 H13        -0.2920   -2.0730    6.2720 hc        1 MOL      0.077540
     33 H14         0.5800   -3.2320    5.2890 hc        1 MOL      0.077540
     34 H15         0.5100   -1.6120    4.7550 hc        1 MOL      0.077540
     35 H16        -2.9250   -0.8080    6.0200 hc        1 MOL      0.035127
     36 H17        -1.5280    0.1810    5.6800 hc        1 MOL      0.035127
     37 H18        -3.0890    0.5310    4.8880 hc        1 MOL      0.035127
     38 N3          0.4560   -5.1740    2.7590 n         1 MOL     -0.242097
     39 C13         1.1840   -4.4020    1.7960 c3        1 MOL     -0.026363
     40 C14         1.6870   -5.2270    0.5960 c         1 MOL      0.496328
     41 O6          2.0770   -6.3540    0.7360 o         1 MOL     -0.529931
     42 C15         2.3130   -3.7030    2.5080 c3        1 MOL     -0.361186
     43 C16         2.9680   -2.7560    1.5060 c         1 MOL      0.670708
     44 O7          3.9960   -2.9950    0.8370 o         1 MOL     -0.629224
     45 O8          2.4590   -1.5920    1.3580 o         1 MOL     -0.629224
     46 H19         0.8420   -6.0900    2.9380 hn        1 MOL      0.250228
     47 H20         0.5770   -3.6010    1.3700 h1        1 MOL     -0.011564
     48 H21         3.0030   -4.4990    2.7820 hc        1 MOL      0.091823
     49 H22         1.9330   -3.1440    3.3700 hc        1 MOL      0.091823
     50 N4          1.7250   -4.5810   -0.5890 n         1 MOL     -0.249422
     51 C17         1.9630   -5.1700   -1.8690 c3        1 MOL     -0.234055
     52 C18         3.2520   -4.7540   -2.6020 c         1 MOL      0.658539
     53 O9          3.3560   -5.0440   -3.7710 o         1 MOL     -0.592369
     54 H23         1.5420   -3.5880   -0.5980 hn        1 MOL      0.337903
     55 H24         1.1130   -4.8540   -2.4800 h1        1 MOL      0.100494
     56 H25         1.9450   -6.2420   -1.7100 h1        1 MOL      0.100494
     57 N5          4.1280   -3.9490   -1.9800 n         1 MOL     -0.425797
     58 C19         5.3690   -3.5200   -2.7000 c3        1 MOL     -0.012299
     59 C20         6.5840   -3.1490   -1.8170 c         1 MOL      0.418298
     60 O10         7.7640   -3.1580   -2.2720 o         1 MOL     -0.562751
     61 C21         5.1590   -2.3600   -3.6440 c3        1 MOL      0.018118
     62 C22         4.4760   -1.2400   -2.9180 c         1 MOL      0.612176
     63 O11         5.1800   -0.4150   -2.3190 o         1 MOL     -0.627977
     64 O12         3.1980   -1.2620   -2.8580 o         1 MOL     -0.627977
     65 H26         4.0290   -3.5980   -1.0390 hn        1 MOL      0.212845
     66 H27         5.5960   -4.4020   -3.3000 h1        1 MOL      0.064049
     67 H28         4.5580   -2.6190   -4.5180 hc        1 MOL     -0.009021
     68 H29         6.1060   -1.9450   -3.9960 hc        1 MOL     -0.009021
     69 N6          6.3590   -2.9120   -0.5500 n         1 MOL     -0.210984
     70 C23         7.3850   -2.5190    0.4130 c3        1 MOL     -0.401804
     71 C24         8.1350   -1.2810    0.0230 c         1 MOL      0.716711
     72 O13         9.1910   -1.0580    0.5310 o         1 MOL     -0.633713
     73 H30         5.3860   -2.8440   -0.3020 hn        1 MOL      0.278915
     74 H31         7.9770   -3.4280    0.4620 h1        1 MOL      0.149813
     75 H32         6.9470   -2.2980    1.3840 h1        1 MOL      0.149813
     76 N7          7.5970   -0.4410   -0.8870 n         1 MOL     -0.039308
     77 C25         8.0670    0.8750   -1.3370 c3        1 MOL      0.083289
     78 C26         8.0820    1.8400   -0.1660 c         1 MOL      0.443205
     79 O14         8.8330    2.8160   -0.2900 o         1 MOL     -0.535473
     80 C27         9.3260    0.7530   -2.2230 c3        1 MOL     -0.137060
     81 C28         9.0770   -0.1570   -3.4160 c3        1 MOL     -0.034212
     82 C29        10.0700    0.1400   -4.5440 c         1 MOL      0.663824
     83 N8         10.0580    1.4150   -4.9530 n         1 MOL     -0.852834
     84 O15        10.7830   -0.6320   -5.1330 o         1 MOL     -0.582959
     85 H33         6.7270   -0.7760   -1.2690 hn        1 MOL      0.038141
     86 H34         7.2790    1.1880   -2.0260 h1        1 MOL      0.074345
     87 H35        10.1380    0.2790   -1.6740 hc        1 MOL      0.038037
     88 H36         9.4450    1.7900   -2.5440 hc        1 MOL      0.038037
     89 H37         8.0830    0.0270   -3.8410 hc        1 MOL      0.024660
     90 H38         9.2210   -1.1890   -3.1040 hc        1 MOL      0.024660
     91 H39         9.5400    2.1560   -4.5140 hn        1 MOL      0.356590
     92 H40        10.5480    1.6810   -5.7890 hn        1 MOL      0.356590
     93 N9          7.2100    1.6670    0.8350 n         1 MOL     -0.390519
     94 C30         7.2370    2.6110    1.9400 c3        1 MOL     -0.019053
     95 C31         5.8520    3.2440    2.3340 c         1 MOL      0.415233
     96 O16         5.8200    4.0420    3.3090 o         1 MOL     -0.567133
     97 C32         7.8540    1.8750    3.1630 c3        1 MOL      0.439830
     98 C33         6.9850    0.6730    3.6240 c3        1 MOL     -0.343354
     99 C34         9.2770    1.4280    2.8800 c3        1 MOL     -0.343354
    100 H41         6.5210    0.9270    0.8830 hn        1 MOL      0.255165
    101 H42         7.9040    3.4330    1.6680 h1        1 MOL      0.070066
    102 H43         8.0100    2.6120    3.9440 hc        1 MOL     -0.076591
    103 H44         6.6870    0.0140    2.8030 hc        1 MOL      0.063290
    104 H45         7.5070   -0.0040    4.2960 hc        1 MOL      0.063290
    105 H46         6.1450    1.1420    4.1250 hc        1 MOL      0.063290
    106 H47         9.8310    2.3180    2.5790 hc        1 MOL      0.063290
    107 H48         9.6680    1.1780    3.8650 hc        1 MOL      0.063290
    108 H49         9.3090    0.6090    2.1620 hc        1 MOL      0.063290
    109 N10         4.7910    2.7210    1.7580 n         1 MOL     -0.288472
    110 C35         3.4060    2.9340    2.2470 c3        1 MOL      0.163197
    111 C36         2.4590    2.7980    1.0300 c         1 MOL      0.392638
    112 O17         2.9000    2.3060   -0.0160 o         1 MOL     -0.453140
    113 C37         3.0800    1.8660    3.2600 c3        1 MOL     -0.143027
    114 C38         1.5710    1.4770    3.3710 c         1 MOL      0.591665
    115 N11         1.1630    0.3630    2.8270 n         1 MOL     -0.809087
    116 O18         0.8240    2.2610    3.8930 o         1 MOL     -0.595775
    117 H50         4.8680    2.1300    0.9380 hn        1 MOL      0.204793
    118 H51         3.2930    3.9000    2.7420 h1        1 MOL      0.048511
    119 H52         3.4710    2.0570    4.2640 hc        1 MOL      0.059846
    120 H53         3.6200    0.9930    2.8950 hc        1 MOL      0.059846
    121 H54         1.7980   -0.1440    2.2280 hn        1 MOL      0.388840
    122 H55         0.1670    0.2140    2.7960 hn        1 MOL      0.388840
    123 N12         1.1770    3.2470    1.1180 n         1 MOL     -0.480829
    124 C39         0.2550    3.1500    0.0340 c3        1 MOL      0.204299
    125 C40        -0.9960    3.9770    0.1300 c         1 MOL      0.390911
    126 O19        -1.5930    4.1170    1.2470 o         1 MOL     -0.520055
    127 C41        -0.1380    1.6010   -0.0200 c3        1 MOL     -0.185752
    128 C42        -1.1410    1.2880   -1.1970 ca        1 MOL      0.021342
    129 C43        -0.9590    1.8660   -2.5200 ca        1 MOL     -0.123980
    130 C44        -2.1960    0.4700   -0.8880 ca        1 MOL     -0.123980
    131 C45        -1.8480    1.4560   -3.5910 ca        1 MOL     -0.203788
    132 C46        -3.1250    0.1320   -1.9030 ca        1 MOL     -0.203788
    133 C47        -2.9370    0.6190   -3.2570 ca        1 MOL      0.241784
    134 O20        -3.8420    0.3090   -4.2670 oh        1 MOL     -0.544634
    135 H56         0.8740    3.7220    1.9560 hn        1 MOL      0.314000
    136 H57         0.8450    3.3190   -0.8720 h1        1 MOL      0.042115
    137 H58        -0.6480    1.3860    0.9260 hc        1 MOL      0.120736
    138 H59         0.7710    1.0050   -0.1170 hc        1 MOL      0.120736
    139 H60        -0.1300    2.5080   -2.7850 ha        1 MOL      0.132301
    140 H61        -2.2700    0.0680    0.1050 ha        1 MOL      0.132301
    141 H62        -1.7660    1.8070   -4.6140 ha        1 MOL      0.145231
    142 H63        -3.9740   -0.5090   -1.7570 ha        1 MOL      0.145231
    143 H64        -4.5970   -0.0980   -3.8520 ho        1 MOL      0.428923
    144 N13        -1.4940    4.5250   -1.0160 n         1 MOL     -0.436954
    145 C48        -2.7340    5.3220   -0.9350 c3        1 MOL      0.588983
    146 C49        -3.6250    4.9330   -2.1480 c         1 MOL      0.263569
    147 O21        -3.2550    5.2670   -3.2610 o         1 MOL     -0.539749
    148 C50        -2.4240    6.8160   -0.9450 c3        1 MOL     -0.181959
    149 C51        -1.5680    7.2270    0.3290 c3        1 MOL     -0.121201
    150 C52        -1.1290    8.6730    0.2190 c         1 MOL      0.689689
    151 O22        -1.5170    9.4840    1.0640 o         1 MOL     -0.665177
    152 O23        -0.3470    9.0320   -0.7340 o         1 MOL     -0.665177
    153 H65        -1.0270    4.5220   -1.9090 hn        1 MOL      0.258686
    154 H66        -3.2850    5.0800   -0.0210 h1        1 MOL     -0.077884
    155 H67        -3.4140    7.2770   -0.8680 hc        1 MOL      0.042578
    156 H68        -1.9020    7.0600   -1.8690 hc        1 MOL      0.042578
    157 H69        -0.6580    6.6300    0.3100 hc        1 MOL      0.023029
    158 H70        -2.1420    6.9970    1.2250 hc        1 MOL      0.023029
    159 N14        -4.6740    4.1150   -2.0380 n         1 MOL     -0.105789
    160 C53        -5.1390    3.4050   -0.8700 c3        1 MOL     -0.902326
    161 C54        -5.7290    4.3670    0.1920 c         1 MOL      0.662255
    162 O24        -6.3810    5.3600   -0.1120 o         1 MOL     -0.551301
    163 C55        -6.1540    2.3880   -1.3500 c3        1 MOL      0.979356
    164 C56        -6.8310    1.6910   -0.1710 c3        1 MOL     -0.243669
    165 C57        -8.1090    0.9310   -0.6540 c         1 MOL      0.719050
    166 O25        -8.1370    0.4280   -1.8030 o         1 MOL     -0.731069
    167 O26        -9.0620    0.6340    0.1490 o         1 MOL     -0.731069
    168 H71        -5.0040    3.7990   -2.9370 hn        1 MOL      0.221541
    169 H72        -4.3180    2.8310   -0.4370 h1        1 MOL      0.191881
    170 H73        -5.7480    1.5850   -1.9760 hc        1 MOL     -0.179740
    171 H74        -6.8880    2.9370   -1.9420 hc        1 MOL     -0.179740
    172 H75        -7.2710    2.4060    0.5220 hc        1 MOL     -0.035702
    173 H76        -6.0860    1.0220    0.2690 hc        1 MOL     -0.035702
    174 N15        -5.4710    4.1030    1.5190 n         1 MOL     -0.142948
    175 C58        -5.7970    5.1490    2.5300 c3        1 MOL     -0.142178
    176 H77        -6.0650    6.0750    2.0210 h1        1 MOL      0.065784
    177 H78        -6.6350    4.8150    3.1420 h1        1 MOL      0.065784
    178 H79        -4.9290    5.3240    3.1670 h1        1 MOL      0.065784
    179 H80        -4.9080    3.3050    1.8070 hn        1 MOL      0.212710
    180 Ca1        -9.5790   -1.8120   -1.1090 Ca        1 MOL      1.662031
    181 O27       -11.5220   -0.7440   -2.3250 oh        1 MOL     -0.874623
    182 H81       -12.2540   -1.3510   -2.2280 ho        1 MOL      0.390765
    183 H82       -11.5220   -0.5080   -3.2540 ho        1 MOL      0.390765
    184 O28       -11.4160   -3.5160   -2.2370 oh        1 MOL     -0.874623
    185 H83       -11.4380   -3.7300   -3.1770 ho        1 MOL      0.390765
    186 H84       -11.7080   -4.3230   -1.8080 ho        1 MOL      0.390765
    187 O29        -8.9220   -4.5010   -0.4350 oh        1 MOL     -0.874623
    188 H85        -8.0120   -4.5850   -0.7180 ho        1 MOL      0.390765
    189 H86        -9.3380   -5.3260   -0.7040 ho        1 MOL      0.390765
    190 O30        -9.3520   -2.0000   -3.9340 oh        1 MOL     -0.874623
    191 H87        -9.1490   -2.9130   -4.1680 ho        1 MOL      0.390765
    192 H88        -9.4640   -1.5580   -4.7700 ho        1 MOL      0.390765
@<TRIPOS>BOND
     1    1    2 1   
     2    1    4 1   
     3    1    5 1   
     4    1    6 1   
     5    2    3 2   
     6    2    7 1   
     7    7    8 1   
     8    7   15 1   
     9    8    9 1   
    10    8   11 1   
    11    8   16 1   
    12    9   10 2   
    13    9   19 1   
    14   11   12 1   
    15   11   17 1   
    16   11   18 1   
    17   12   13 1   
    18   12   14 1   
    19   19   20 1   
    20   19   27 1   
    21   20   21 1   
    22   20   23 1   
    23   20   28 1   
    24   21   22 2   
    25   21   38 1   
    26   23   24 1   
    27   23   25 1   
    28   23   29 1   
    29   24   26 1   
    30   24   30 1   
    31   24   31 1   
    32   25   32 1   
    33   25   33 1   
    34   25   34 1   
    35   26   35 1   
    36   26   36 1   
    37   26   37 1   
    38   38   39 1   
    39   38   46 1   
    40   39   40 1   
    41   39   42 1   
    42   39   47 1   
    43   40   41 2   
    44   40   50 1   
    45   42   43 1   
    46   42   48 1   
    47   42   49 1   
    48   43   44 1   
    49   43   45 1   
    50   50   51 1   
    51   50   54 1   
    52   51   52 1   
    53   51   55 1   
    54   51   56 1   
    55   52   53 2   
    56   52   57 1   
    57   57   58 1   
    58   57   65 1   
    59   58   59 1   
    60   58   61 1   
    61   58   66 1   
    62   59   60 2   
    63   59   69 1   
    64   61   62 1   
    65   61   67 1   
    66   61   68 1   
    67   62   63 1   
    68   62   64 1   
    69   69   70 1   
    70   69   73 1   
    71   70   71 1   
    72   70   74 1   
    73   70   75 1   
    74   71   72 2   
    75   71   76 1   
    76   76   77 1   
    77   76   85 1   
    78   77   78 1   
    79   77   80 1   
    80   77   86 1   
    81   78   79 2   
    82   78   93 1   
    83   80   81 1   
    84   80   87 1   
    85   80   88 1   
    86   81   82 1   
    87   81   89 1   
    88   81   90 1   
    89   82   83 1   
    90   82   84 2   
    91   83   91 1   
    92   83   92 1   
    93   93   94 1   
    94   93  100 1   
    95   94   95 1   
    96   94   97 1   
    97   94  101 1   
    98   95   96 2   
    99   95  109 1   
   100   97   98 1   
   101   97   99 1   
   102   97  102 1   
   103   98  103 1   
   104   98  104 1   
   105   98  105 1   
   106   99  106 1   
   107   99  107 1   
   108   99  108 1   
   109  109  110 1   
   110  109  117 1   
   111  110  111 1   
   112  110  113 1   
   113  110  118 1   
   114  111  112 2   
   115  111  123 1   
   116  113  114 1   
   117  113  119 1   
   118  113  120 1   
   119  114  115 1   
   120  114  116 2   
   121  115  121 1   
   122  115  122 1   
   123  123  124 1   
   124  123  135 1   
   125  124  125 1   
   126  124  127 1   
   127  124  136 1   
   128  125  126 2   
   129  125  144 1   
   130  127  128 1   
   131  127  137 1   
   132  127  138 1   
   133  128  129 ar  
   134  128  130 ar  
   135  129  131 ar  
   136  129  139 1   
   137  130  132 ar  
   138  130  140 1   
   139  131  133 ar  
   140  131  141 1   
   141  132  133 ar  
   142  132  142 1   
   143  133  134 1   
   144  134  143 1   
   145  144  145 1   
   146  144  153 1   
   147  145  146 1   
   148  145  148 1   
   149  145  154 1   
   150  146  147 2   
   151  146  159 1   
   152  148  149 1   
   153  148  155 1   
   154  148  156 1   
   155  149  150 1   
   156  149  157 1   
   157  149  158 1   
   158  150  151 1   
   159  150  152 1   
   160  159  160 1   
   161  159  168 1   
   162  160  161 1   
   163  160  163 1   
   164  160  169 1   
   165  161  162 2   
   166  161  174 1   
   167  163  164 1   
   168  163  170 1   
   169  163  171 1   
   170  164  165 1   
   171  164  172 1   
   172  164  173 1   
   173  165  166 1   
   174  165  167 1   
   175  174  175 1   
   176  174  179 1   
   177  175  176 1   
   178  175  177 1   
   179  175  178 1   
   180  181  182 1   
   181  181  183 1   
   182  184  185 1   
   183  184  186 1   
   184  187  188 1   
   185  187  189 1   
   186  190  191 1   
   187  190  192 1   
@<TRIPOS>SUBSTRUCTURE
     1 MOL         1 TEMP              0 ****  ****    0 ROOT
