@<TRIPOS>MOLECULE
MOL
  178   175     1     0     0
SMALL
resp


@<TRIPOS>ATOM
      1 C1         -6.0190    7.9860    1.4340 c3        1 MOL     -0.339990
      2 C2         -7.0230    7.0380    0.8000 c         1 MOL      0.688275
      3 O1         -7.2980    7.1540   -0.3770 o         1 MOL     -0.574995
      4 H1         -6.5080    8.5580    2.2220 hc        1 MOL      0.082485
      5 H2         -5.1960    7.4120    1.8610 hc        1 MOL      0.082485
      6 H3         -5.6330    8.6680    0.6760 hc        1 MOL      0.082485
      7 N1         -7.6900    6.1320    1.5690 n         1 MOL     -0.488074
      8 C3         -8.6310    5.0810    1.1790 c3        1 MOL      0.032852
      9 C4         -8.0440    3.7960    0.6660 c         1 MOL      0.677065
     10 O2         -8.0990    2.6990    1.2670 o         1 MOL     -0.534574
     11 C5         -9.8460    4.7940    2.2010 c3        1 MOL     -0.221186
     12 C6        -10.9900    4.0850    1.5020 c         1 MOL      0.736001
     13 O3        -11.6390    3.2390    2.0670 o         1 MOL     -0.732006
     14 O4        -11.1960    4.3670    0.2960 o         1 MOL     -0.732006
     15 H4         -7.5400    6.1660    2.5700 hn        1 MOL      0.259416
     16 H5         -9.0420    5.5780    0.3020 h1        1 MOL      0.050229
     17 H6        -10.1930    5.7090    2.6930 hc        1 MOL      0.029847
     18 H7         -9.5990    4.1430    3.0350 hc        1 MOL      0.029847
     19 N2         -7.4230    3.9520   -0.5380 n         1 MOL     -0.828557
     20 C7         -7.0220    2.7950   -1.3280 c3        1 MOL      0.689913
     21 C8         -5.4970    2.5220   -0.9550 c         1 MOL      0.315249
     22 O5         -4.7890    3.3190   -0.3750 o         1 MOL     -0.507176
     23 C9         -7.2760    3.2050   -2.7910 c3        1 MOL     -0.295821
     24 H8         -7.3110    4.8720   -0.9400 hn        1 MOL      0.356092
     25 H9         -7.5800    1.8880   -1.0980 h1        1 MOL     -0.049033
     26 H10        -6.6920    2.5560   -3.4550 hc        1 MOL      0.058235
     27 H11        -8.3140    2.9780   -3.0440 hc        1 MOL      0.058235
     28 H12        -6.8920    4.1790   -3.0980 hc        1 MOL      0.058235
     29 N3         -4.9420    1.3610   -1.2050 n         1 MOL     -0.276934
     30 C10        -5.4860    0.2520   -1.9570 c3        1 MOL     -0.113068
     31 C11        -5.6830   -1.0000   -0.9870 c         1 MOL      0.460021
     32 O6         -4.9160   -1.1400    0.0610 o         1 MOL     -0.536223
     33 C12        -4.4760   -0.1400   -3.0440 c3        1 MOL     -0.122668
     34 C13        -3.1500   -0.5590   -2.4380 c         1 MOL      0.668629
     35 O7         -2.4160    0.2980   -1.8780 o         1 MOL     -0.677711
     36 O8         -2.7480   -1.7080   -2.5620 o         1 MOL     -0.677711
     37 H13        -3.9580    1.3160   -0.9950 hn        1 MOL      0.259574
     38 H14        -6.4330    0.5230   -2.4060 h1        1 MOL      0.056711
     39 H15        -4.3740    0.6910   -3.7440 hc        1 MOL      0.025941
     40 H16        -4.8520   -1.0260   -3.5420 hc        1 MOL      0.025941
     41 N4         -6.6060   -1.8840   -1.2960 n         1 MOL     -0.347793
     42 C14        -6.9460   -3.0950   -0.5430 c3        1 MOL      0.015435
     43 C15        -6.8360   -4.3900   -1.3470 c         1 MOL      0.501641
     44 O9         -7.8350   -4.8690   -1.9110 o         1 MOL     -0.551066
     45 H17        -7.0840   -1.6630   -2.1600 hn        1 MOL      0.287483
     46 H18        -7.9780   -3.0440   -0.1890 h1        1 MOL      0.073044
     47 H19        -6.4100   -3.1720    0.4110 h1        1 MOL      0.073044
     48 N5         -5.5970   -4.9260   -1.5760 n         1 MOL     -0.501254
     49 C16        -4.3480   -4.4880   -1.0060 c3        1 MOL      0.058952
     50 C17        -4.3870   -4.7580    0.5160 c         1 MOL      0.599267
     51 O10        -4.9040   -5.7370    1.0140 o         1 MOL     -0.560999
     52 C18        -3.1240   -5.2480   -1.7000 c3        1 MOL     -0.202821
     53 C19        -1.8280   -4.6290   -1.4790 c         1 MOL      0.573184
     54 N6         -0.7370   -5.0590   -2.0940 n         1 MOL     -0.703101
     55 O11        -1.7080   -3.5200   -0.9790 o         1 MOL     -0.504798
     56 H20        -5.6460   -5.6930   -2.2270 hn        1 MOL      0.301612
     57 H21        -4.3060   -3.4160   -1.2040 h1        1 MOL      0.095801
     58 H22        -3.3460   -5.1660   -2.7670 hc        1 MOL      0.078648
     59 H23        -3.0820   -6.2830   -1.3930 hc        1 MOL      0.078648
     60 H24        -0.7330   -5.7960   -2.7820 hn        1 MOL      0.330879
     61 H25         0.0610   -4.5160   -1.7810 hn        1 MOL      0.330879
     62 N7         -3.9940   -3.6730    1.2630 n         1 MOL     -0.236798
     63 C20        -3.8790   -3.7210    2.6940 c3        1 MOL     -0.213299
     64 C21        -2.4540   -3.8950    3.1980 c         1 MOL      0.529974
     65 O12        -2.2060   -4.0840    4.4000 o         1 MOL     -0.599832
     66 H26        -3.6260   -2.8260    0.8610 hn        1 MOL      0.236040
     67 H27        -4.5210   -4.5290    3.0570 h1        1 MOL      0.106865
     68 H28        -4.2650   -2.8050    3.1370 h1        1 MOL      0.106865
     69 N8         -1.4720   -3.8310    2.3200 n         1 MOL     -0.176099
     70 C22        -0.0450   -4.0720    2.6420 c3        1 MOL     -0.139861
     71 C23         0.8840   -3.0280    2.0440 c         1 MOL      0.285076
     72 O13         0.6710   -2.5500    0.9370 o         1 MOL     -0.344069
     73 C24         0.3640   -5.4730    2.1080 c3        1 MOL      0.375087
     74 C25        -0.1770   -6.6460    2.8760 c3        1 MOL     -0.303019
     75 O14         0.1590   -5.7610    0.7540 oh        1 MOL     -0.647478
     76 H29        -1.7080   -3.6940    1.3500 hn        1 MOL      0.142193
     77 H30         0.0360   -4.0230    3.7240 h1        1 MOL      0.101534
     78 H31         1.4530   -5.5200    2.2380 h1        1 MOL     -0.011095
     79 H32         0.9220   -5.4720    0.2560 ho        1 MOL      0.440489
     80 H33         0.0660   -7.5880    2.3780 hc        1 MOL      0.072805
     81 H34         0.3250   -6.8210    3.8190 hc        1 MOL      0.072805
     82 H35        -1.2550   -6.6650    2.9820 hc        1 MOL      0.072805
     83 N9          2.0040   -2.7980    2.7330 n         1 MOL     -0.228246
     84 C26         3.1580   -1.9420    2.4210 c3        1 MOL     -0.020993
     85 C27         4.0640   -2.5570    1.4330 c         1 MOL      0.275924
     86 O15         4.9180   -3.3980    1.7840 o         1 MOL     -0.574059
     87 C28         4.0440   -1.6290    3.6700 c3        1 MOL      0.345249
     88 C29         5.0910   -0.5600    3.4230 c3        1 MOL      0.064712
     89 C30         3.1270   -1.2680    4.8800 c3        1 MOL     -0.467790
     90 C31         4.7190    0.8880    3.3960 c3        1 MOL     -0.223807
     91 H36         2.0560   -3.2860    3.6240 hn        1 MOL      0.206268
     92 H37         2.7310   -1.0710    1.9130 h1        1 MOL      0.039105
     93 H38         4.5500   -2.5270    4.0380 hc        1 MOL     -0.016668
     94 H39         5.6370   -0.8380    2.5180 hc        1 MOL     -0.035046
     95 H40         5.7480   -0.7840    4.2620 hc        1 MOL     -0.035046
     96 H41         2.5690   -0.3400    4.8250 hc        1 MOL      0.100938
     97 H42         2.3310   -2.0020    4.9870 hc        1 MOL      0.100938
     98 H43         3.7350   -1.2230    5.7840 hc        1 MOL      0.100938
     99 H44         4.1440    1.0210    2.4690 hc        1 MOL      0.046671
    100 H45         4.2250    1.2180    4.3040 hc        1 MOL      0.046671
    101 H46         5.6300    1.4900    3.3360 hc        1 MOL      0.046671
    102 N10         3.8700   -2.1520    0.1970 n         1 MOL      0.061580
    103 C32         4.6540   -2.6170   -0.9460 c3        1 MOL      0.057318
    104 C33         5.7490   -1.7100   -1.4540 c         1 MOL      0.552441
    105 O16         6.4360   -2.0180   -2.4020 o         1 MOL     -0.561710
    106 C34         3.7160   -3.2320   -2.0550 c3        1 MOL     -0.419902
    107 C35         2.2850   -3.6590   -1.5910 c         1 MOL      0.888504
    108 O17         2.1130   -4.6940   -0.8630 o         1 MOL     -0.756913
    109 O18         1.2770   -3.1080   -2.0550 o         1 MOL     -0.756913
    110 H47         3.1210   -1.4990   -0.0030 hn        1 MOL      0.124868
    111 H48         5.1990   -3.4960   -0.6050 h1        1 MOL      0.084883
    112 H49         4.1900   -4.1590   -2.3770 hc        1 MOL      0.096634
    113 H50         3.5460   -2.6080   -2.9340 hc        1 MOL      0.096634
    114 N11         5.9720   -0.5940   -0.7760 n         1 MOL     -0.528891
    115 C36         7.1370    0.2950   -0.9640 c3        1 MOL      0.330749
    116 C37         6.7720    1.6810   -0.4480 c         1 MOL      0.571488
    117 O19         6.0450    1.8310    0.5340 o         1 MOL     -0.490544
    118 C38         8.3440   -0.3200   -0.2710 c3        1 MOL     -0.328147
    119 C39         9.4920    0.6070    0.0220 ca        1 MOL      0.110906
    120 C40         9.5000    1.4330    1.1460 ca        1 MOL     -0.137146
    121 C41        10.5600    0.5850   -0.8540 ca        1 MOL     -0.137146
    122 C42        10.6120    2.2170    1.4770 ca        1 MOL     -0.129142
    123 C43        11.6820    1.3800   -0.5560 ca        1 MOL     -0.129142
    124 C44        11.6580    2.2580    0.5600 ca        1 MOL     -0.125677
    125 H51         5.3130   -0.3540   -0.0570 hn        1 MOL      0.210244
    126 H52         7.2910    0.3680   -2.0430 h1        1 MOL      0.008675
    127 H53         8.6820   -1.2000   -0.8150 hc        1 MOL      0.122129
    128 H54         8.0230   -0.6680    0.7100 hc        1 MOL      0.122129
    129 H55         8.6260    1.5360    1.7760 ha        1 MOL      0.118643
    130 H56        10.5680   -0.1370   -1.6550 ha        1 MOL      0.118643
    131 H57        10.5630    2.8940    2.3130 ha        1 MOL      0.112591
    132 H58        12.4940    1.4390   -1.2700 ha        1 MOL      0.112591
    133 H59        12.4960    2.9170    0.7580 ha        1 MOL      0.103603
    134 N12         7.2770    2.7700   -1.1370 n         1 MOL     -0.498987
    135 C45         7.0030    4.2070   -0.8380 c3        1 MOL      0.090855
    136 C46         5.5010    4.6560   -0.8060 c         1 MOL      0.329362
    137 O20         5.1840    5.7860   -0.8630 o         1 MOL     -0.512269
    138 C47         7.7520    4.8820   -1.9350 c3        1 MOL     -0.133488
    139 C48         9.0240    4.0640   -2.0870 c3        1 MOL     -0.122237
    140 C49         8.2570    2.7680   -2.2400 c3        1 MOL      0.245554
    141 H60         7.3910    4.4670    0.1440 h1        1 MOL      0.103039
    142 H61         7.2850    4.9000   -2.9210 hc        1 MOL      0.075191
    143 H62         8.0290    5.8890   -1.6310 hc        1 MOL      0.075191
    144 H63         9.6170    4.2790   -2.9750 hc        1 MOL      0.050865
    145 H64         9.6710    4.1140   -1.2060 hc        1 MOL      0.050865
    146 H65         7.8880    2.6630   -3.2660 h1        1 MOL     -0.000047
    147 H66         8.9950    1.9630   -2.2130 h1        1 MOL     -0.000047
    148 N13         4.5210    3.7520   -0.7260 n         1 MOL      0.023268
    149 C50         3.1360    4.0320   -0.5070 c3        1 MOL     -0.399956
    150 C51         2.7710    4.7490    0.8160 c         1 MOL      0.493516
    151 O21         1.7250    5.4050    1.0110 o         1 MOL     -0.526503
    152 C52         2.3470    2.8070   -0.7880 c3        1 MOL      0.017387
    153 C53         2.5970    1.6360    0.1630 c3        1 MOL      0.209750
    154 C54         1.7700    0.4730   -0.1390 c         1 MOL      0.650695
    155 O22         2.0940   -0.3450   -1.0230 o         1 MOL     -0.766092
    156 O23         0.5570    0.3920    0.2110 o         1 MOL     -0.766092
    157 H67         4.8290    2.7860   -0.7590 hn        1 MOL      0.092721
    158 H68         2.8510    4.7010   -1.3140 h1        1 MOL      0.178141
    159 H69         2.6520    2.5360   -1.8000 hc        1 MOL      0.043061
    160 H70         1.2880    3.0460   -0.6390 hc        1 MOL      0.043061
    161 H71         2.3950    1.9430    1.1910 hc        1 MOL     -0.059381
    162 H72         3.6350    1.2890    0.0690 hc        1 MOL     -0.059381
    163 N14         3.6840    4.7250    1.7870 n         1 MOL     -0.102259
    164 C55         3.5280    5.2730    3.1060 c3        1 MOL     -0.165325
    165 H73         2.5660    5.7800    3.1770 h1        1 MOL      0.078694
    166 H74         3.5700    4.4700    3.8410 h1        1 MOL      0.078694
    167 H75         4.3290    5.9870    3.3000 h1        1 MOL      0.078694
    168 H76         4.5310    4.2690    1.4880 hn        1 MOL      0.149811
    169 Ca1        -0.4430   -1.3840   -1.4360 Ca        1 MOL      1.773277
    170 O24         0.1610    0.5290   -3.3970 oh        1 MOL     -0.776251
    171 H77         0.2920    0.3970   -4.3320 ho        1 MOL      0.376502
    172 H78        -0.2000    1.4140   -3.3220 ho        1 MOL      0.376502
    173 O25        -0.5740   -1.9090   -4.3340 oh        1 MOL     -0.776251
    174 H79        -1.1060   -2.0330   -5.1250 ho        1 MOL      0.376502
    175 H80         0.3100   -2.1540   -4.5970 ho        1 MOL      0.376502
    176 O26        -2.2410   -1.0340    0.6050 oh        1 MOL     -0.776251
    177 H81        -2.0140   -0.6660    1.4540 ho        1 MOL      0.376502
    178 H82        -3.1940   -0.9980    0.5810 ho        1 MOL      0.376502
@<TRIPOS>BOND
     1    1    2 1   
     2    1    4 1   
     3    1    5 1   
     4    1    6 1   
     5    2    3 2   
     6    2    7 1   
     7    7    8 1   
     8    7   15 1   
     9    8    9 1   
    10    8   11 1   
    11    8   16 1   
    12    9   10 2   
    13    9   19 1   
    14   11   12 1   
    15   11   17 1   
    16   11   18 1   
    17   12   13 1   
    18   12   14 1   
    19   19   20 1   
    20   19   24 1   
    21   20   21 1   
    22   20   23 1   
    23   20   25 1   
    24   21   22 2   
    25   21   29 1   
    26   23   26 1   
    27   23   27 1   
    28   23   28 1   
    29   29   30 1   
    30   29   37 1   
    31   30   31 1   
    32   30   33 1   
    33   30   38 1   
    34   31   32 2   
    35   31   41 1   
    36   33   34 1   
    37   33   39 1   
    38   33   40 1   
    39   34   35 1   
    40   34   36 1   
    41   41   42 1   
    42   41   45 1   
    43   42   43 1   
    44   42   46 1   
    45   42   47 1   
    46   43   44 2   
    47   43   48 1   
    48   48   49 1   
    49   48   56 1   
    50   49   50 1   
    51   49   52 1   
    52   49   57 1   
    53   50   51 2   
    54   50   62 1   
    55   52   53 1   
    56   52   58 1   
    57   52   59 1   
    58   53   54 1   
    59   53   55 2   
    60   54   60 1   
    61   54   61 1   
    62   62   63 1   
    63   62   66 1   
    64   63   64 1   
    65   63   67 1   
    66   63   68 1   
    67   64   65 2   
    68   64   69 1   
    69   69   70 1   
    70   69   76 1   
    71   70   71 1   
    72   70   73 1   
    73   70   77 1   
    74   71   72 2   
    75   71   83 1   
    76   73   74 1   
    77   73   75 1   
    78   73   78 1   
    79   74   80 1   
    80   74   81 1   
    81   74   82 1   
    82   75   79 1   
    83   83   84 1   
    84   83   91 1   
    85   84   85 1   
    86   84   87 1   
    87   84   92 1   
    88   85   86 2   
    89   85  102 1   
    90   87   88 1   
    91   87   89 1   
    92   87   93 1   
    93   88   90 1   
    94   88   94 1   
    95   88   95 1   
    96   89   96 1   
    97   89   97 1   
    98   89   98 1   
    99   90   99 1   
   100   90  100 1   
   101   90  101 1   
   102  102  103 1   
   103  102  110 1   
   104  103  104 1   
   105  103  106 1   
   106  103  111 1   
   107  104  105 2   
   108  104  114 1   
   109  106  107 1   
   110  106  112 1   
   111  106  113 1   
   112  107  108 1   
   113  107  109 1   
   114  114  115 1   
   115  114  125 1   
   116  115  116 1   
   117  115  118 1   
   118  115  126 1   
   119  116  117 2   
   120  116  134 1   
   121  118  119 1   
   122  118  127 1   
   123  118  128 1   
   124  119  120 ar  
   125  119  121 ar  
   126  120  122 ar  
   127  120  129 1   
   128  121  123 ar  
   129  121  130 1   
   130  122  124 ar  
   131  122  131 1   
   132  123  124 ar  
   133  123  132 1   
   134  124  133 1   
   135  134  135 1   
   136  134  140 1   
   137  135  136 1   
   138  135  138 1   
   139  135  141 1   
   140  136  137 2   
   141  136  148 1   
   142  138  139 1   
   143  138  142 1   
   144  138  143 1   
   145  139  140 1   
   146  139  144 1   
   147  139  145 1   
   148  140  146 1   
   149  140  147 1   
   150  148  149 1   
   151  148  157 1   
   152  149  150 1   
   153  149  152 1   
   154  149  158 1   
   155  150  151 2   
   156  150  163 1   
   157  152  153 1   
   158  152  159 1   
   159  152  160 1   
   160  153  154 1   
   161  153  161 1   
   162  153  162 1   
   163  154  155 1   
   164  154  156 1   
   165  163  164 1   
   166  163  168 1   
   167  164  165 1   
   168  164  166 1   
   169  164  167 1   
   170  170  171 1   
   171  170  172 1   
   172  173  174 1   
   173  173  175 1   
   174  176  177 1   
   175  176  178 1   
@<TRIPOS>SUBSTRUCTURE
     1 MOL         1 TEMP              0 ****  ****    0 ROOT
