@<TRIPOS>MOLECULE
MOL
  195   189     1     0     0
SMALL
resp


@<TRIPOS>ATOM
      1 C1          0.7930    3.6230    3.1260 c3        1 MOL     -0.523464
      2 C2         -0.3140    3.9010    1.9990 c         1 MOL      0.657424
      3 O1         -0.8890    2.9650    1.4450 o         1 MOL     -0.487632
      4 H1          1.7800    3.5900    2.6650 hc        1 MOL      0.140716
      5 H2          0.7650    4.4210    3.8680 hc        1 MOL      0.140716
      6 H3          0.5860    2.6680    3.6100 hc        1 MOL      0.140716
      7 N1         -0.4700    5.1190    1.5610 n         1 MOL     -0.533884
      8 C3         -1.0990    5.4720    0.3100 c3        1 MOL     -0.150651
      9 C4         -2.5390    4.9720    0.1000 c         1 MOL      0.544237
     10 O2         -3.0370    5.0180   -1.0230 o         1 MOL     -0.482911
     11 C5         -0.1780    5.1770   -0.8920 c3        1 MOL     -0.020605
     12 C6          1.2110    5.6360   -0.7000 c         1 MOL      0.544695
     13 O3          1.9910    4.8980   -0.0560 o         1 MOL     -0.670981
     14 O4          1.5590    6.7380   -1.1630 o         1 MOL     -0.670981
     15 H4         -0.1500    5.8900    2.1240 hn        1 MOL      0.311852
     16 H5         -1.2230    6.5460    0.4000 h1        1 MOL      0.143294
     17 H6         -0.5360    5.5670   -1.8450 hc        1 MOL      0.062379
     18 H7         -0.1140    4.0930   -1.0360 hc        1 MOL      0.062379
     19 N2         -3.2620    4.6930    1.2470 n         1 MOL     -0.417859
     20 C7         -4.6550    4.2380    1.3580 c3        1 MOL     -0.226626
     21 C8         -5.7770    5.2190    0.7420 c         1 MOL      0.476955
     22 O5         -5.5660    6.4240    0.4370 o         1 MOL     -0.527170
     23 C9         -4.9280    4.1320    2.8570 c3        1 MOL     -0.007798
     24 C10        -4.8240    5.4020    3.7270 c3        1 MOL      0.096078
     25 C11        -3.9970    3.0610    3.5250 c3        1 MOL     -0.238404
     26 C12        -5.1410    5.2210    5.1940 c3        1 MOL     -0.139928
     27 H8         -2.7470    4.7180    2.1280 hn        1 MOL      0.309415
     28 H9         -4.7670    3.2650    0.8880 h1        1 MOL      0.230955
     29 H10        -5.9310    3.7220    2.9990 hc        1 MOL      0.104069
     30 H11        -5.6340    6.0610    3.4250 hc        1 MOL     -0.011908
     31 H12        -3.8570    5.9030    3.6760 hc        1 MOL     -0.011908
     32 H13        -3.0010    3.4150    3.7900 hc        1 MOL      0.055109
     33 H14        -4.5060    2.6820    4.4160 hc        1 MOL      0.055109
     34 H15        -3.8600    2.2950    2.7690 hc        1 MOL      0.055109
     35 H16        -6.0910    4.7290    5.3680 hc        1 MOL      0.026195
     36 H17        -4.3990    4.6740    5.7700 hc        1 MOL      0.026195
     37 H18        -5.3070    6.2090    5.6350 hc        1 MOL      0.026195
     38 N3         -7.0210    4.7190    0.4790 n         1 MOL     -0.457029
     39 C13        -7.5920    3.3440    0.5260 c3        1 MOL      0.108877
     40 C14        -6.8510    2.3930   -0.3810 c         1 MOL      0.649464
     41 O6         -6.6820    1.2560   -0.0130 o         1 MOL     -0.584163
     42 C15        -9.0510    3.4060    0.2150 c3        1 MOL     -0.150124
     43 C16        -9.4240    3.9290   -1.1660 c         1 MOL      0.645101
     44 O7        -10.2590    3.2550   -1.8380 o         1 MOL     -0.692267
     45 O8         -8.9410    4.9870   -1.5790 o         1 MOL     -0.692267
     46 H19        -7.6410    5.3920    0.0350 hn        1 MOL      0.266825
     47 H20        -7.4720    2.9290    1.5280 h1        1 MOL     -0.006482
     48 H21        -9.5180    4.0390    0.9730 hc        1 MOL      0.024910
     49 H22        -9.4630    2.4170    0.4580 hc        1 MOL      0.024910
     50 N4         -6.3020    2.9220   -1.5240 n         1 MOL     -0.496264
     51 C17        -5.2820    2.1320   -2.2490 c3        1 MOL     -0.046695
     52 C18        -5.6570    0.8080   -2.9250 c         1 MOL      0.477507
     53 O9         -6.8090    0.6290   -3.4050 o         1 MOL     -0.510643
     54 H23        -6.3480    3.8860   -1.8180 hn        1 MOL      0.371825
     55 H24        -4.4100    1.9090   -1.6380 h1        1 MOL      0.071643
     56 H25        -4.8890    2.8160   -2.9950 h1        1 MOL      0.071643
     57 N5         -4.7220   -0.1550   -2.9490 n         1 MOL     -0.334980
     58 C19        -4.8870   -1.5270   -3.4600 c3        1 MOL     -0.121813
     59 C20        -5.6910   -2.4150   -2.4940 c         1 MOL      0.423924
     60 O10        -6.2150   -3.4600   -2.9780 o         1 MOL     -0.538878
     61 C21        -3.5410   -2.1050   -3.8840 c3        1 MOL      0.024324
     62 C22        -2.4510   -2.0640   -2.8680 c         1 MOL      0.676344
     63 O11        -2.3220   -3.0540   -2.1000 o         1 MOL     -0.683604
     64 O12        -1.6930   -1.0360   -2.9720 o         1 MOL     -0.683604
     65 H26        -3.7670    0.0560   -2.7040 hn        1 MOL      0.189286
     66 H27        -5.3350   -1.5210   -4.4550 h1        1 MOL      0.105800
     67 H28        -3.0960   -1.6230   -4.7650 hc        1 MOL     -0.005972
     68 H29        -3.6980   -3.1380   -4.1820 hc        1 MOL     -0.005972
     69 N6         -5.7080   -1.9970   -1.2110 n         1 MOL     -0.092758
     70 C23        -6.2150   -2.8580   -0.1090 c3        1 MOL     -0.373498
     71 C24        -5.4270   -4.1950    0.1670 c         1 MOL      0.513444
     72 O13        -5.8610   -4.9540    1.0230 o         1 MOL     -0.588302
     73 H30        -5.2860   -1.1030   -0.9820 hn        1 MOL      0.227716
     74 H31        -7.1460   -3.2060   -0.5420 h1        1 MOL      0.159274
     75 H32        -6.3360   -2.3130    0.8330 h1        1 MOL      0.159274
     76 N7         -4.2480   -4.4470   -0.4240 n         1 MOL     -0.030678
     77 C25        -3.3860   -5.6090   -0.2940 c3        1 MOL     -0.032762
     78 C26        -2.9380   -6.0610    1.1290 c         1 MOL      0.276726
     79 O14        -2.4090   -7.1880    1.3310 o         1 MOL     -0.507668
     80 C27        -3.8740   -6.7810   -1.2270 c3        1 MOL      0.203295
     81 C28        -3.9040   -6.4200   -2.6650 c3        1 MOL     -0.275444
     82 C29        -4.1900   -7.6320   -3.5550 c         1 MOL      0.667526
     83 N8         -5.3600   -7.6970   -4.1630 n         1 MOL     -0.794753
     84 O15        -3.5340   -8.6090   -3.6320 o         1 MOL     -0.560402
     85 H33        -3.8160   -3.7770   -1.0390 hn        1 MOL      0.016770
     86 H34        -2.4270   -5.2650   -0.6880 h1        1 MOL      0.161705
     87 H35        -4.8200   -7.1690   -0.8690 hc        1 MOL     -0.028938
     88 H36        -3.1490   -7.5990   -1.2410 hc        1 MOL     -0.028938
     89 H37        -2.9200   -5.9770   -2.8340 hc        1 MOL      0.071592
     90 H38        -4.6780   -5.6600   -2.7920 hc        1 MOL      0.071592
     91 H39        -6.0110   -6.9390   -4.0230 hn        1 MOL      0.346956
     92 H40        -5.7140   -8.5520   -4.5670 hn        1 MOL      0.346956
     93 N9         -3.0300   -5.1730    2.1240 n         1 MOL     -0.042432
     94 C30        -2.6590   -5.4010    3.5930 c3        1 MOL     -0.179779
     95 C31        -1.4120   -4.5970    4.0350 c         1 MOL      0.543668
     96 O16        -0.7280   -4.8880    4.9930 o         1 MOL     -0.572673
     97 C32        -3.8940   -5.0120    4.4710 c3        1 MOL      0.323946
     98 C33        -4.3700   -3.6310    4.1730 c3        1 MOL     -0.304899
     99 C34        -5.0320   -6.0320    4.4500 c3        1 MOL     -0.304899
    100 H41        -3.1560   -4.2170    1.8160 hn        1 MOL      0.115720
    101 H42        -2.3800   -6.4470    3.6840 h1        1 MOL      0.121486
    102 H43        -3.5780   -5.0230    5.5110 hc        1 MOL     -0.048451
    103 H44        -4.8140   -3.5400    3.1880 hc        1 MOL      0.068326
    104 H45        -5.1110   -3.3030    4.9010 hc        1 MOL      0.068326
    105 H46        -3.5480   -2.9140    4.2040 hc        1 MOL      0.068326
    106 H47        -4.6990   -7.0130    4.7640 hc        1 MOL      0.068326
    107 H48        -5.7730   -5.6800    5.1620 hc        1 MOL      0.068326
    108 H49        -5.4190   -6.0600    3.4330 hc        1 MOL      0.068326
    109 N10        -1.0400   -3.5820    3.2590 n         1 MOL     -0.463878
    110 C35         0.2760   -2.8540    3.2500 c3        1 MOL      0.293581
    111 C36         0.8850   -2.9830    1.8360 c         1 MOL      0.474351
    112 O17         0.2270   -3.2850    0.8640 o         1 MOL     -0.554385
    113 C37        -0.0060   -1.4040    3.7240 c3        1 MOL     -0.176154
    114 C38         0.8930   -0.3360    3.2180 c         1 MOL      0.577626
    115 N11         0.5070    0.2950    2.1220 n         1 MOL     -0.835093
    116 O18         1.9890   -0.0370    3.7210 o         1 MOL     -0.572327
    117 H50        -1.7650   -3.3690    2.5820 hn        1 MOL      0.259066
    118 H51         1.0840   -3.2990    3.8310 h1        1 MOL      0.049859
    119 H52         0.0120   -1.5010    4.8120 hc        1 MOL      0.048286
    120 H53        -1.0290   -1.0660    3.5450 hc        1 MOL      0.048286
    121 H54        -0.3550    0.0310    1.6620 hn        1 MOL      0.409208
    122 H55         1.1970    0.9010    1.7110 hn        1 MOL      0.409208
    123 N12         2.1190   -2.5680    1.7240 n         1 MOL     -0.387437
    124 C39         2.9890   -2.7280    0.5070 c3        1 MOL      0.068924
    125 C40         4.4290   -2.4880    0.9970 c         1 MOL      0.621341
    126 O19         4.7600   -2.0650    2.1120 o         1 MOL     -0.547540
    127 C41         2.5290   -1.6610   -0.5670 c3        1 MOL     -0.096135
    128 C42         3.1210   -1.7540   -1.9470 ca        1 MOL     -0.023842
    129 C43         4.1670   -0.8320   -2.3460 ca        1 MOL     -0.133888
    130 C44         2.6260   -2.7180   -2.8540 ca        1 MOL     -0.133888
    131 C45         4.6100   -0.8680   -3.6740 ca        1 MOL     -0.256669
    132 C46         3.2070   -2.8410   -4.1480 ca        1 MOL     -0.256669
    133 C47         4.1700   -1.9060   -4.5380 ca        1 MOL      0.337106
    134 O20         4.7430   -2.0240   -5.7610 oh        1 MOL     -0.518708
    135 H56         2.5320   -2.2210    2.5800 hn        1 MOL      0.194832
    136 H57         3.0060   -3.7610    0.1460 h1        1 MOL      0.092413
    137 H58         2.5820   -0.6140   -0.2820 hc        1 MOL      0.094342
    138 H59         1.4590   -1.8650   -0.6640 hc        1 MOL      0.094342
    139 H60         4.5410   -0.1410   -1.6190 ha        1 MOL      0.166860
    140 H61         1.7620   -3.3150   -2.5900 ha        1 MOL      0.166860
    141 H62         5.3660   -0.1880   -4.0340 ha        1 MOL      0.154885
    142 H63         2.8280   -3.5400   -4.8760 ha        1 MOL      0.154885
    143 H64         5.4650   -1.4080   -5.8780 ho        1 MOL      0.373867
    144 N13         5.3790   -2.7290    0.1060 n         1 MOL     -0.803401
    145 C48         6.8320   -2.6760    0.3200 c3        1 MOL      0.348683
    146 C49         7.4880   -1.8500   -0.7610 c         1 MOL      0.588019
    147 O21         7.7330   -2.3040   -1.8680 o         1 MOL     -0.547479
    148 C50         7.3790   -4.1580    0.2660 c3        1 MOL      0.041749
    149 C51         8.8660   -4.2080    0.6400 c3        1 MOL     -0.304719
    150 C52         9.4500   -5.6490    0.4110 c         1 MOL      0.714174
    151 O22         9.3680   -6.1760   -0.7370 o         1 MOL     -0.688552
    152 O23        10.0390   -6.2850    1.3020 o         1 MOL     -0.688552
    153 H65         5.1080   -2.8930   -0.8530 hn        1 MOL      0.349238
    154 H66         7.1070   -2.2500    1.2820 h1        1 MOL      0.077154
    155 H67         7.2650   -4.6640   -0.7000 hc        1 MOL      0.004349
    156 H68         6.8710   -4.6080    1.1080 hc        1 MOL      0.004349
    157 H69         8.9210   -3.9430    1.6940 hc        1 MOL      0.043876
    158 H70         9.3860   -3.4390    0.0610 hc        1 MOL      0.043876
    159 N14         7.7030   -0.5500   -0.5890 n         1 MOL     -0.602485
    160 C53         7.2050    0.3780    0.4360 c3        1 MOL      0.100371
    161 C54         7.8910    0.1290    1.7930 c         1 MOL      0.468490
    162 O24         9.1020    0.0810    1.8340 o         1 MOL     -0.542390
    163 C55         7.6360    1.7490   -0.0810 c3        1 MOL     -0.203858
    164 C56         6.5810    2.1680   -1.1180 c3        1 MOL     -0.114238
    165 C57         6.8230    3.4600   -1.8240 c         1 MOL      0.747619
    166 O25         6.3700    4.5150   -1.3660 o         1 MOL     -0.719301
    167 O26         7.4860    3.4710   -2.9170 o         1 MOL     -0.719301
    168 H71         8.0500   -0.0460   -1.4000 hn        1 MOL      0.343199
    169 H72         6.1190    0.3070    0.5360 h1        1 MOL      0.023851
    170 H73         8.6150    1.6100   -0.5450 hc        1 MOL      0.075264
    171 H74         7.6000    2.5490    0.6630 hc        1 MOL      0.075264
    172 H75         5.6060    2.3150   -0.6540 hc        1 MOL      0.013931
    173 H76         6.3230    1.4200   -1.8780 hc        1 MOL      0.013931
    174 N15         7.1690   -0.0170    2.8560 n         1 MOL     -0.302136
    175 C58         7.5280   -0.4470    4.2380 c3        1 MOL     -0.192469
    176 H77         8.6120   -0.5330    4.3220 h1        1 MOL      0.098510
    177 H78         7.1670    0.2910    4.9540 h1        1 MOL      0.098510
    178 H79         7.0700   -1.4130    4.4490 h1        1 MOL      0.098510
    179 H80         6.1900    0.1430    2.7070 hn        1 MOL      0.264609
    180 Ca1         4.1430    6.0740   -0.8190 Ca        1 MOL      1.677203
    181 O27         3.8410    8.8390   -1.0180 oh        1 MOL     -0.838976
    182 H81         4.6240    9.3890   -0.9390 ho        1 MOL      0.399648
    183 H82         3.1100    9.4630   -0.9380 ho        1 MOL      0.399648
    184 O28         5.0040    4.4630    1.2310 oh        1 MOL     -0.838976
    185 H83         4.8520    4.3290    2.1660 ho        1 MOL      0.399648
    186 H84         5.9510    4.4380    1.1430 ho        1 MOL      0.399648
    187 O29         3.5180    3.8180   -2.2160 oh        1 MOL     -0.838976
    188 H85         2.5680    3.6890   -2.2790 ho        1 MOL      0.399648
    189 H86         3.8650    3.4650   -3.0340 ho        1 MOL      0.399648
    190 O30         4.4310    6.4810   -3.3990 oh        1 MOL     -0.838976
    191 H87         3.6620    6.4350   -3.9700 ho        1 MOL      0.399648
    192 H88         5.1270    6.0410   -3.8920 ho        1 MOL      0.399648
    193 O31         6.3120    7.4090    0.0280 oh        1 MOL     -0.838976
    194 H89         6.7010    8.0310   -0.5850 ho        1 MOL      0.399648
    195 H90         6.8070    7.5180    0.8380 ho        1 MOL      0.399648
@<TRIPOS>BOND
     1    1    2 1   
     2    1    4 1   
     3    1    5 1   
     4    1    6 1   
     5    2    3 2   
     6    2    7 1   
     7    7    8 1   
     8    7   15 1   
     9    8    9 1   
    10    8   11 1   
    11    8   16 1   
    12    9   10 2   
    13    9   19 1   
    14   11   12 1   
    15   11   17 1   
    16   11   18 1   
    17   12   13 1   
    18   12   14 1   
    19   19   20 1   
    20   19   27 1   
    21   20   21 1   
    22   20   23 1   
    23   20   28 1   
    24   21   22 2   
    25   21   38 1   
    26   23   24 1   
    27   23   25 1   
    28   23   29 1   
    29   24   26 1   
    30   24   30 1   
    31   24   31 1   
    32   25   32 1   
    33   25   33 1   
    34   25   34 1   
    35   26   35 1   
    36   26   36 1   
    37   26   37 1   
    38   38   39 1   
    39   38   46 1   
    40   39   40 1   
    41   39   42 1   
    42   39   47 1   
    43   40   41 2   
    44   40   50 1   
    45   42   43 1   
    46   42   48 1   
    47   42   49 1   
    48   43   44 1   
    49   43   45 1   
    50   50   51 1   
    51   50   54 1   
    52   51   52 1   
    53   51   55 1   
    54   51   56 1   
    55   52   53 2   
    56   52   57 1   
    57   57   58 1   
    58   57   65 1   
    59   58   59 1   
    60   58   61 1   
    61   58   66 1   
    62   59   60 2   
    63   59   69 1   
    64   61   62 1   
    65   61   67 1   
    66   61   68 1   
    67   62   63 1   
    68   62   64 1   
    69   69   70 1   
    70   69   73 1   
    71   70   71 1   
    72   70   74 1   
    73   70   75 1   
    74   71   72 2   
    75   71   76 1   
    76   76   77 1   
    77   76   85 1   
    78   77   78 1   
    79   77   80 1   
    80   77   86 1   
    81   78   79 2   
    82   78   93 1   
    83   80   81 1   
    84   80   87 1   
    85   80   88 1   
    86   81   82 1   
    87   81   89 1   
    88   81   90 1   
    89   82   83 1   
    90   82   84 2   
    91   83   91 1   
    92   83   92 1   
    93   93   94 1   
    94   93  100 1   
    95   94   95 1   
    96   94   97 1   
    97   94  101 1   
    98   95   96 2   
    99   95  109 1   
   100   97   98 1   
   101   97   99 1   
   102   97  102 1   
   103   98  103 1   
   104   98  104 1   
   105   98  105 1   
   106   99  106 1   
   107   99  107 1   
   108   99  108 1   
   109  109  110 1   
   110  109  117 1   
   111  110  111 1   
   112  110  113 1   
   113  110  118 1   
   114  111  112 2   
   115  111  123 1   
   116  113  114 1   
   117  113  119 1   
   118  113  120 1   
   119  114  115 1   
   120  114  116 2   
   121  115  121 1   
   122  115  122 1   
   123  123  124 1   
   124  123  135 1   
   125  124  125 1   
   126  124  127 1   
   127  124  136 1   
   128  125  126 2   
   129  125  144 1   
   130  127  128 1   
   131  127  137 1   
   132  127  138 1   
   133  128  129 ar  
   134  128  130 ar  
   135  129  131 ar  
   136  129  139 1   
   137  130  132 ar  
   138  130  140 1   
   139  131  133 ar  
   140  131  141 1   
   141  132  133 ar  
   142  132  142 1   
   143  133  134 1   
   144  134  143 1   
   145  144  145 1   
   146  144  153 1   
   147  145  146 1   
   148  145  148 1   
   149  145  154 1   
   150  146  147 2   
   151  146  159 1   
   152  148  149 1   
   153  148  155 1   
   154  148  156 1   
   155  149  150 1   
   156  149  157 1   
   157  149  158 1   
   158  150  151 1   
   159  150  152 1   
   160  159  160 1   
   161  159  168 1   
   162  160  161 1   
   163  160  163 1   
   164  160  169 1   
   165  161  162 2   
   166  161  174 1   
   167  163  164 1   
   168  163  170 1   
   169  163  171 1   
   170  164  165 1   
   171  164  172 1   
   172  164  173 1   
   173  165  166 1   
   174  165  167 1   
   175  174  175 1   
   176  174  179 1   
   177  175  176 1   
   178  175  177 1   
   179  175  178 1   
   180  181  182 1   
   181  181  183 1   
   182  184  185 1   
   183  184  186 1   
   184  187  188 1   
   185  187  189 1   
   186  190  191 1   
   187  190  192 1   
   188  193  194 1   
   189  193  195 1   
@<TRIPOS>SUBSTRUCTURE
     1 MOL         1 TEMP              0 ****  ****    0 ROOT
