@<TRIPOS>MOLECULE
MOL
  188   182     1     0     0
SMALL
resp


@<TRIPOS>ATOM
      1 C1         -5.6520    0.3950   -5.2780 c3        1 MOL     -0.269589
      2 C2         -4.6180    0.3100   -4.1970 c         1 MOL      0.450004
      3 O1         -3.4100    0.5010   -4.4350 o         1 MOL     -0.525961
      4 H1         -5.1870    0.1900   -6.2420 hc        1 MOL      0.084909
      5 H2         -6.4360   -0.3390   -5.0900 hc        1 MOL      0.084909
      6 H3         -6.0860    1.3950   -5.2880 hc        1 MOL      0.084909
      7 N1         -5.1160    0.2670   -2.9460 n         1 MOL     -0.230874
      8 C3         -4.3540    0.2940   -1.7420 c3        1 MOL     -0.231861
      9 C4         -4.3480   -1.0750   -1.0880 c         1 MOL      0.433978
     10 O2         -3.4570   -1.3250   -0.2200 o         1 MOL     -0.458137
     11 C5         -4.8270    1.3850   -0.7520 c3        1 MOL      0.096823
     12 C6         -6.3610    1.4450   -0.5440 c         1 MOL      0.635129
     13 O3         -7.1530    0.5960   -1.0840 o         1 MOL     -0.628735
     14 O4         -6.9070    2.5150   -0.1600 o         1 MOL     -0.628735
     15 H4         -6.1270    0.2600   -2.8940 hn        1 MOL      0.223254
     16 H5         -3.3160    0.5610   -1.9630 h1        1 MOL      0.188711
     17 H6         -4.5450    2.3930   -1.0480 hc        1 MOL     -0.000807
     18 H7         -4.2960    1.1180    0.1580 hc        1 MOL     -0.000807
     19 N2         -5.2100   -1.9890   -1.4500 n         1 MOL     -0.357724
     20 C7         -5.2360   -3.3830   -0.9320 c3        1 MOL     -0.023702
     21 C8         -5.4180   -3.3680    0.5800 c         1 MOL      0.484811
     22 O5         -6.4740   -2.9910    1.1510 o         1 MOL     -0.471270
     23 C9         -6.1510   -4.3400   -1.6880 c3        1 MOL     -0.148489
     24 C10        -5.7350   -4.3550   -3.1650 c3        1 MOL      0.226849
     25 C11        -6.3390   -5.5200   -3.8320 c3        1 MOL     -0.122284
     26 C12        -7.9250   -5.6600   -3.6910 c3        1 MOL      0.113841
     27 N3         -8.5170   -6.8200   -4.4460 n4        1 MOL     -0.409691
     28 H8         -5.7490   -1.7940   -2.2790 hn        1 MOL      0.255618
     29 H9         -4.2120   -3.7480   -0.9740 h1        1 MOL      0.036880
     30 H10        -7.1640   -3.9340   -1.6610 hc        1 MOL      0.070785
     31 H11        -6.1130   -5.3070   -1.1900 hc        1 MOL      0.070785
     32 H12        -4.6570   -4.3680   -3.3170 hc        1 MOL     -0.029907
     33 H13        -6.0630   -3.4330   -3.6500 hc        1 MOL     -0.029907
     34 H14        -6.0020   -6.4460   -3.3510 hc        1 MOL      0.031008
     35 H15        -6.0420   -5.4960   -4.8750 hc        1 MOL      0.031008
     36 H16        -8.3500   -4.7050   -3.9650 hx        1 MOL      0.068345
     37 H17        -8.1290   -5.8170   -2.6240 hx        1 MOL      0.068345
     38 H18        -9.5250   -6.8650   -4.4590 hn        1 MOL      0.311641
     39 H19        -8.1970   -6.7170   -5.4010 hn        1 MOL      0.311641
     40 H20        -8.1180   -7.6460   -4.0240 hn        1 MOL      0.311641
     41 N4         -4.3720   -3.8600    1.3070 n         1 MOL     -0.450704
     42 C13        -4.2880   -3.7530    2.7830 c3        1 MOL      0.049941
     43 C14        -4.3390   -2.2950    3.3050 c         1 MOL      0.480811
     44 O6         -4.6720   -2.0930    4.4590 o         1 MOL     -0.559892
     45 C15        -2.9130   -4.2110    3.2340 c3        1 MOL     -0.157316
     46 C16        -1.7070   -3.4390    2.5510 c         1 MOL      0.717938
     47 O7         -1.6600   -3.2850    1.3590 o         1 MOL     -0.696250
     48 O8         -0.8690   -2.9100    3.2980 o         1 MOL     -0.696250
     49 H21        -3.5610   -4.2110    0.8180 hn        1 MOL      0.248433
     50 H22        -5.0770   -4.2990    3.2970 h1        1 MOL      0.086795
     51 H23        -2.8350   -5.2390    2.9080 hc        1 MOL      0.045812
     52 H24        -2.8240   -4.2060    4.3170 hc        1 MOL      0.045812
     53 N5         -4.0450   -1.2950    2.5410 n         1 MOL     -0.182993
     54 C17        -4.1970    0.0860    2.9780 c3        1 MOL     -0.050323
     55 C18        -5.6840    0.6840    2.9300 c         1 MOL      0.668902
     56 O9         -6.6140   -0.0840    2.7330 o         1 MOL     -0.526212
     57 H25        -3.7990   -1.5580    1.6020 hn        1 MOL      0.142086
     58 H26        -3.7230    0.7360    2.2430 h1        1 MOL      0.038062
     59 H27        -3.7700    0.1570    3.9730 h1        1 MOL      0.038062
     60 N6         -5.9340    1.9890    3.0670 n         1 MOL     -0.626980
     61 C19        -4.8680    3.0080    3.4250 c3        1 MOL      0.321668
     62 C20        -5.0370    4.2180    2.4790 c         1 MOL      0.496568
     63 O10        -6.1090    4.7540    2.3740 o         1 MOL     -0.463792
     64 C21        -4.9870    3.4170    4.9210 c3        1 MOL     -0.517678
     65 C22        -4.1800    4.6620    5.2110 c         1 MOL      0.703619
     66 N7         -2.9090    4.4840    5.3560 n         1 MOL     -0.725967
     67 O11        -4.6430    5.7880    5.3470 o         1 MOL     -0.547191
     68 H28        -6.8400    2.2650    2.7260 hn        1 MOL      0.360988
     69 H29        -3.8520    2.6640    3.2300 h1        1 MOL     -0.022489
     70 H30        -4.7300    2.5660    5.5530 hc        1 MOL      0.155949
     71 H31        -6.0470    3.6870    4.9710 hc        1 MOL      0.155949
     72 H32        -2.6200    3.5210    5.4770 hn        1 MOL      0.339041
     73 H33        -2.2760    5.2580    5.5280 hn        1 MOL      0.339041
     74 N8         -3.9730    4.6200    1.7360 n         1 MOL     -0.557081
     75 C23        -2.6290    4.0400    1.6180 c3        1 MOL      0.239553
     76 C24        -1.7490    4.6690    0.4830 c         1 MOL      0.506984
     77 O12        -2.2470    5.5420   -0.2530 o         1 MOL     -0.501502
     78 H34        -4.2390    5.1320    0.9140 hn        1 MOL      0.316264
     79 H35        -2.6720    2.9820    1.3650 h1        1 MOL     -0.055815
     80 H36        -1.9820    4.1570    2.4810 h1        1 MOL     -0.055815
     81 N9         -0.5640    4.1040    0.3850 n         1 MOL     -0.431082
     82 C25         0.4840    4.5200   -0.5220 c3        1 MOL     -0.003223
     83 C26         1.5620    3.4770   -0.6540 c         1 MOL      0.677240
     84 O13         1.5420    2.5770    0.1700 o         1 MOL     -0.558187
     85 C27         0.9890    5.8970   -0.1700 c3        1 MOL     -0.175008
     86 C28         1.8020    6.4750   -1.2750 ca        1 MOL      0.001882
     87 C29         3.1240    6.8820   -1.0310 ca        1 MOL     -0.082205
     88 C30         1.1510    6.7320   -2.4960 ca        1 MOL     -0.082205
     89 C31         3.8420    7.4490   -2.1320 ca        1 MOL     -0.308179
     90 C32         1.8670    7.2760   -3.5800 ca        1 MOL     -0.308179
     91 C33         3.2380    7.6380   -3.3400 ca        1 MOL      0.386511
     92 O14         4.0330    8.2680   -4.2340 oh        1 MOL     -0.498720
     93 H37        -0.3080    3.4420    1.1080 hn        1 MOL      0.269395
     94 H38        -0.0800    4.5940   -1.4600 h1        1 MOL      0.058080
     95 H39         1.5450    5.8810    0.7740 hc        1 MOL      0.104160
     96 H40         0.1280    6.5470    0.0120 hc        1 MOL      0.104160
     97 H41         3.6370    6.7860   -0.0830 ha        1 MOL      0.133087
     98 H42         0.1680    6.3040   -2.6560 ha        1 MOL      0.133087
     99 H43         4.8230    7.8000   -1.8720 ha        1 MOL      0.159663
    100 H44         1.3590    7.4360   -4.5240 ha        1 MOL      0.159663
    101 H45         3.6530    8.2300   -5.1170 ho        1 MOL      0.364982
    102 N10         2.4900    3.5330   -1.6040 n         1 MOL     -0.493034
    103 C34         3.6640    2.6790   -1.7490 c3        1 MOL     -0.018873
    104 C35         4.7240    2.8200   -0.6090 c         1 MOL      0.718904
    105 O15         4.7660    3.9410   -0.0280 o         1 MOL     -0.527109
    106 C36         4.2690    2.7130   -3.1540 c3        1 MOL      0.156792
    107 C37         3.3840    2.1610   -4.3010 c3        1 MOL      0.041514
    108 C38         4.7660    4.1550   -3.3640 c3        1 MOL     -0.091919
    109 C39         4.0300    1.9590   -5.6490 c3        1 MOL     -0.215817
    110 H46         2.4620    4.3330   -2.2220 hn        1 MOL      0.204216
    111 H47         3.2910    1.6550   -1.7420 h1        1 MOL      0.003679
    112 H48         5.1540    2.0810   -3.2090 hc        1 MOL     -0.021128
    113 H49         2.6160    2.9300   -4.3770 hc        1 MOL      0.000292
    114 H50         2.8770    1.2520   -3.9750 hc        1 MOL      0.000292
    115 H51         3.9760    4.8930   -3.4620 hc        1 MOL      0.022643
    116 H52         5.3950    4.3010   -2.4880 hc        1 MOL      0.022643
    117 H53         5.4200    4.1950   -4.2330 hc        1 MOL      0.022643
    118 H54         4.6250    2.8340   -5.9240 hc        1 MOL      0.058679
    119 H55         4.7850    1.1660   -5.6070 hc        1 MOL      0.058679
    120 H56         3.3410    1.5850   -6.4130 hc        1 MOL      0.058679
    121 N11         5.4440    1.7560   -0.2700 n         1 MOL     -0.627747
    122 C40         6.3500    1.6310    0.9050 c3        1 MOL     -0.015251
    123 C41         5.8830    0.4740    1.8010 c         1 MOL      0.798301
    124 O16         5.0300   -0.3160    1.3920 o         1 MOL     -0.558262
    125 C42         7.7670    1.3400    0.3630 c3        1 MOL      0.072271
    126 O17         7.8630    0.0290   -0.1690 oh        1 MOL     -0.569291
    127 H57         5.3830    0.8780   -0.7740 hn        1 MOL      0.357751
    128 H58         6.3070    2.4950    1.5660 h1        1 MOL      0.067312
    129 H59         8.5140    1.5220    1.1260 h1        1 MOL      0.055137
    130 H60         8.1050    2.0030   -0.4350 h1        1 MOL      0.055137
    131 H61         8.7660   -0.3200   -0.1580 ho        1 MOL      0.390017
    132 N12         6.5390    0.3100    2.9680 n         1 MOL     -0.664534
    133 C43         6.4170   -0.7960    3.9760 c3        1 MOL      0.242131
    134 C44         6.7530   -2.1680    3.3010 c         1 MOL      0.450807
    135 O18         6.0140   -3.0800    3.5140 o         1 MOL     -0.438250
    136 C45         5.0450   -0.7420    4.7780 c3        1 MOL     -0.461503
    137 H62         7.2440    0.9890    3.2120 hn        1 MOL      0.301565
    138 H63         7.2390   -0.7200    4.6880 h1        1 MOL      0.022709
    139 H64         5.0440   -1.5910    5.4570 hc        1 MOL      0.148241
    140 H65         4.9450    0.2230    5.2560 hc        1 MOL      0.148241
    141 H66         4.2820   -0.8720    4.0110 hc        1 MOL      0.148241
    142 N13         7.9240   -2.1730    2.6910 n         1 MOL     -0.423539
    143 C46         8.5480   -3.4170    2.1640 c3        1 MOL      0.229229
    144 C47         7.6480   -4.2320    1.1600 c         1 MOL      0.506385
    145 O19         7.6960   -5.4640    1.1050 o         1 MOL     -0.496316
    146 C48         9.2460   -4.1620    3.3120 c3        1 MOL     -0.339501
    147 H67         8.5400   -1.3710    2.6820 hn        1 MOL      0.255543
    148 H68         9.3550   -3.0120    1.5550 h1        1 MOL      0.023072
    149 H69         9.9970   -4.7860    2.8380 hc        1 MOL      0.098329
    150 H70         9.7160   -3.3690    3.8830 hc        1 MOL      0.098329
    151 H71         8.5690   -4.7910    3.9000 hc        1 MOL      0.098329
    152 N14         6.7880   -3.5870    0.3930 n         1 MOL     -0.742916
    153 C49         5.5890   -4.2810   -0.1660 c3        1 MOL      0.459792
    154 C50         5.8120   -5.0210   -1.4970 c         1 MOL      0.411791
    155 O20         5.6090   -6.2660   -1.5860 o         1 MOL     -0.527672
    156 C51         4.3510   -3.3690   -0.1790 c3        1 MOL     -0.131944
    157 C52         3.2160   -4.1330   -0.7640 c3        1 MOL     -0.008288
    158 C53         1.8660   -3.4500   -0.6500 c         1 MOL      0.648337
    159 O21         0.9050   -3.9760   -0.0130 o         1 MOL     -0.705766
    160 O22         1.6570   -2.4420   -1.4090 o         1 MOL     -0.705766
    161 H72         6.6520   -2.5920    0.5560 hn        1 MOL      0.299248
    162 H73         5.2410   -5.0390    0.5360 h1        1 MOL      0.048271
    163 H74         4.6620   -2.5170   -0.7820 hc        1 MOL      0.028134
    164 H75         4.0700   -3.2000    0.8540 hc        1 MOL      0.028134
    165 H76         3.2540   -5.1520   -0.4090 hc        1 MOL     -0.010103
    166 H77         3.3150   -4.1920   -1.8430 hc        1 MOL     -0.010103
    167 N15         6.4360   -4.2940   -2.4530 n         1 MOL     -0.221443
    168 C54         6.8580   -4.9870   -3.6290 c3        1 MOL     -0.356106
    169 H78         6.7820   -4.3220   -4.4890 h1        1 MOL      0.134769
    170 H79         7.8920   -5.3090   -3.5100 h1        1 MOL      0.134769
    171 H80         6.2210   -5.8580   -3.7860 h1        1 MOL      0.134769
    172 H81         6.5670   -3.2970   -2.3180 hn        1 MOL      0.231291
    173 Ca1        -0.8680   -1.9580   -0.5200 Ca        1 MOL      1.750461
    174 O23        -1.3190    0.6010    0.4030 oh        1 MOL     -0.847436
    175 H82        -1.2290    0.9820    1.2780 ho        1 MOL      0.405657
    176 H83        -0.7090    1.0990   -0.1330 ho        1 MOL      0.405657
    177 O24         0.1910    0.0330   -2.0240 oh        1 MOL     -0.847436
    178 H84         0.0940    0.8960   -2.4220 ho        1 MOL      0.405657
    179 H85         1.1330   -0.1570   -2.1030 ho        1 MOL      0.405657
    180 O25         0.4580   -1.0580    1.7410 oh        1 MOL     -0.847436
    181 H86         1.0640   -0.5430    2.2760 ho        1 MOL      0.405657
    182 H87         0.1130   -1.7280    2.3350 ho        1 MOL      0.405657
    183 O26        -1.6440   -4.3410   -1.4510 oh        1 MOL     -0.847436
    184 H88        -0.9270   -4.8540   -1.0800 ho        1 MOL      0.405657
    185 H89        -2.3830   -4.9490   -1.4840 ho        1 MOL      0.405657
    186 O27        -1.7260   -1.8310   -3.0110 oh        1 MOL     -0.847436
    187 H90        -2.0760   -1.1150   -3.5410 ho        1 MOL      0.405657
    188 H91        -2.0150   -2.6230   -3.4550 ho        1 MOL      0.405657
@<TRIPOS>BOND
     1    1    2 1   
     2    1    4 1   
     3    1    5 1   
     4    1    6 1   
     5    2    3 2   
     6    2    7 1   
     7    7    8 1   
     8    7   15 1   
     9    8    9 1   
    10    8   11 1   
    11    8   16 1   
    12    9   10 2   
    13    9   19 1   
    14   11   12 1   
    15   11   17 1   
    16   11   18 1   
    17   12   13 1   
    18   12   14 1   
    19   19   20 1   
    20   19   28 1   
    21   20   21 1   
    22   20   23 1   
    23   20   29 1   
    24   21   22 2   
    25   21   41 1   
    26   23   24 1   
    27   23   30 1   
    28   23   31 1   
    29   24   25 1   
    30   24   32 1   
    31   24   33 1   
    32   25   26 1   
    33   25   34 1   
    34   25   35 1   
    35   26   27 1   
    36   26   36 1   
    37   26   37 1   
    38   27   38 1   
    39   27   39 1   
    40   27   40 1   
    41   41   42 1   
    42   41   49 1   
    43   42   43 1   
    44   42   45 1   
    45   42   50 1   
    46   43   44 2   
    47   43   53 1   
    48   45   46 1   
    49   45   51 1   
    50   45   52 1   
    51   46   47 1   
    52   46   48 1   
    53   53   54 1   
    54   53   57 1   
    55   54   55 1   
    56   54   58 1   
    57   54   59 1   
    58   55   56 2   
    59   55   60 1   
    60   60   61 1   
    61   60   68 1   
    62   61   62 1   
    63   61   64 1   
    64   61   69 1   
    65   62   63 2   
    66   62   74 1   
    67   64   65 1   
    68   64   70 1   
    69   64   71 1   
    70   65   66 1   
    71   65   67 2   
    72   66   72 1   
    73   66   73 1   
    74   74   75 1   
    75   74   78 1   
    76   75   76 1   
    77   75   79 1   
    78   75   80 1   
    79   76   77 2   
    80   76   81 1   
    81   81   82 1   
    82   81   93 1   
    83   82   83 1   
    84   82   85 1   
    85   82   94 1   
    86   83   84 2   
    87   83  102 1   
    88   85   86 1   
    89   85   95 1   
    90   85   96 1   
    91   86   87 ar  
    92   86   88 ar  
    93   87   89 ar  
    94   87   97 1   
    95   88   90 ar  
    96   88   98 1   
    97   89   91 ar  
    98   89   99 1   
    99   90   91 ar  
   100   90  100 1   
   101   91   92 1   
   102   92  101 1   
   103  102  103 1   
   104  102  110 1   
   105  103  104 1   
   106  103  106 1   
   107  103  111 1   
   108  104  105 2   
   109  104  121 1   
   110  106  107 1   
   111  106  108 1   
   112  106  112 1   
   113  107  109 1   
   114  107  113 1   
   115  107  114 1   
   116  108  115 1   
   117  108  116 1   
   118  108  117 1   
   119  109  118 1   
   120  109  119 1   
   121  109  120 1   
   122  121  122 1   
   123  121  127 1   
   124  122  123 1   
   125  122  125 1   
   126  122  128 1   
   127  123  124 2   
   128  123  132 1   
   129  125  126 1   
   130  125  129 1   
   131  125  130 1   
   132  126  131 1   
   133  132  133 1   
   134  132  137 1   
   135  133  134 1   
   136  133  136 1   
   137  133  138 1   
   138  134  135 2   
   139  134  142 1   
   140  136  139 1   
   141  136  140 1   
   142  136  141 1   
   143  142  143 1   
   144  142  147 1   
   145  143  144 1   
   146  143  146 1   
   147  143  148 1   
   148  144  145 2   
   149  144  152 1   
   150  146  149 1   
   151  146  150 1   
   152  146  151 1   
   153  152  153 1   
   154  152  161 1   
   155  153  154 1   
   156  153  156 1   
   157  153  162 1   
   158  154  155 2   
   159  154  167 1   
   160  156  157 1   
   161  156  163 1   
   162  156  164 1   
   163  157  158 1   
   164  157  165 1   
   165  157  166 1   
   166  158  159 1   
   167  158  160 1   
   168  167  168 1   
   169  167  172 1   
   170  168  169 1   
   171  168  170 1   
   172  168  171 1   
   173  174  175 1   
   174  174  176 1   
   175  177  178 1   
   176  177  179 1   
   177  180  181 1   
   178  180  182 1   
   179  183  184 1   
   180  183  185 1   
   181  186  187 1   
   182  186  188 1   
@<TRIPOS>SUBSTRUCTURE
     1 MOL         1 TEMP              0 ****  ****    0 ROOT
