@<TRIPOS>MOLECULE
MOL
  184   179     1     0     0
SMALL
resp


@<TRIPOS>ATOM
      1 C1          9.8830    7.4720   -0.5520 c3        1 MOL     -0.431502
      2 C2          8.9660    6.3740    0.0820 c         1 MOL      0.779627
      3 O1          7.9130    6.7220    0.6070 o         1 MOL     -0.564817
      4 H1          9.9400    8.3290    0.1190 hc        1 MOL      0.106693
      5 H2         10.8830    7.0670   -0.7080 hc        1 MOL      0.106693
      6 H3          9.4650    7.7880   -1.5090 hc        1 MOL      0.106693
      7 N1          9.2320    5.0440   -0.1440 n         1 MOL     -0.943931
      8 C3          9.9680    4.3080   -1.2120 c3        1 MOL      0.505195
      9 C4         10.9770    3.3000   -0.6870 c         1 MOL      0.439975
     10 O2         11.6750    2.7100   -1.4750 o         1 MOL     -0.584385
     11 C5          8.9630    3.7000   -2.1780 c3        1 MOL     -0.251673
     12 C6          7.9700    2.7350   -1.5320 c         1 MOL      0.968435
     13 O3          7.2620    2.1190   -2.2700 o         1 MOL     -0.846361
     14 O4          8.0040    2.4540   -0.3110 o         1 MOL     -0.846361
     15 H4          8.6370    4.4670    0.4240 hn        1 MOL      0.380383
     16 H5         10.6550    4.9140   -1.8010 h1        1 MOL     -0.033651
     17 H6          9.5540    3.2420   -2.9680 hc        1 MOL      0.051473
     18 H7          8.4310    4.5480   -2.6180 hc        1 MOL      0.051473
     19 N2         10.9700    2.9540    0.5690 n         1 MOL     -0.427841
     20 C7         11.9360    2.1270    1.2280 c3        1 MOL      0.235507
     21 C8         11.3460    0.6420    1.4350 c         1 MOL      0.248029
     22 O5         11.7840   -0.1270    2.3680 o         1 MOL     -0.503485
     23 C9         12.3560    2.7990    2.5820 c3        1 MOL     -0.308339
     24 H8         10.2200    3.2290    1.1940 hn        1 MOL      0.334188
     25 H9         12.8370    2.1220    0.5960 h1        1 MOL      0.055425
     26 H10        13.1880    2.2840    3.0510 hc        1 MOL      0.086196
     27 H11        12.5660    3.8580    2.4420 hc        1 MOL      0.086196
     28 H12        11.5290    2.7030    3.2910 hc        1 MOL      0.086196
     29 N3         10.2850    0.2070    0.7190 n         1 MOL     -0.134015
     30 C10         9.7710   -1.2280    0.8240 c3        1 MOL      0.011261
     31 C11         9.0330   -1.5730   -0.4480 c         1 MOL      0.343356
     32 O6          8.5780   -0.6840   -1.2050 o         1 MOL     -0.440988
     33 C12         8.9090   -1.4540    2.0970 c3        1 MOL      0.055781
     34 C13         8.0130   -0.2520    2.4220 c         1 MOL      0.555579
     35 O7          8.1180    0.3340    3.5200 o         1 MOL     -0.638604
     36 O8          7.2320    0.1950    1.5390 o         1 MOL     -0.638604
     37 H13         9.8180    0.8960    0.1490 hn        1 MOL      0.196008
     38 H14        10.6000   -1.9360    0.9650 h1        1 MOL      0.050322
     39 H15         9.6160   -1.6510    2.8970 hc        1 MOL     -0.020069
     40 H16         8.3830   -2.3970    1.9500 hc        1 MOL     -0.020069
     41 N4          8.7660   -2.8660   -0.7140 n         1 MOL     -0.374216
     42 C14         7.9810   -3.4550   -1.8190 c3        1 MOL     -0.164216
     43 C15         6.4820   -3.2880   -1.6780 c         1 MOL      0.724288
     44 O9          6.1670   -2.2110   -1.1800 o         1 MOL     -0.581160
     45 H17         8.8620   -3.5130    0.0500 hn        1 MOL      0.287507
     46 H18         8.3370   -4.4650   -2.0130 h1        1 MOL      0.107622
     47 H19         8.2050   -2.8620   -2.7030 h1        1 MOL      0.107622
     48 N5          5.7170   -4.3070   -2.0250 n         1 MOL     -0.755898
     49 C16         4.2200   -4.2260   -2.1430 c3        1 MOL      0.572576
     50 C17         3.5050   -4.3790   -0.8040 c         1 MOL      0.478145
     51 O10         3.9370   -5.1520    0.0990 o         1 MOL     -0.527574
     52 C18         3.7160   -5.2220   -3.2320 c3        1 MOL     -0.589601
     53 C19         4.0790   -4.8630   -4.7040 c         1 MOL      0.810612
     54 N6          3.6890   -3.7180   -5.2440 n         1 MOL     -0.807137
     55 O11         4.8440   -5.5120   -5.3560 o         1 MOL     -0.568434
     56 H20         6.1790   -5.0810   -2.4910 hn        1 MOL      0.354061
     57 H21         3.9870   -3.2130   -2.4650 h1        1 MOL     -0.119959
     58 H22         2.6340   -5.2390   -3.1870 hc        1 MOL      0.150858
     59 H23         4.1220   -6.1980   -2.9580 hc        1 MOL      0.150858
     60 H24         3.0780   -3.0660   -4.7670 hn        1 MOL      0.353642
     61 H25         4.1930   -3.3540   -6.0290 hn        1 MOL      0.353642
     62 N7          2.2720   -3.9380   -0.7860 n         1 MOL     -0.455661
     63 C20         1.3510   -4.0840    0.3470 c3        1 MOL     -0.035147
     64 C21         1.3540   -2.9090    1.3340 c         1 MOL      0.809262
     65 O12         2.2240   -2.0560    1.2370 o         1 MOL     -0.648395
     66 H26         1.9090   -3.5630   -1.6530 hn        1 MOL      0.279223
     67 H27         1.7570   -4.8960    0.9420 h1        1 MOL      0.086708
     68 H28         0.3440   -4.3390    0.0010 h1        1 MOL      0.086708
     69 N8          0.3690   -2.8680    2.2660 n         1 MOL     -0.712982
     70 C22        -0.8830   -3.6190    2.3690 c3        1 MOL     -0.073714
     71 C23        -2.2430   -2.8500    2.4110 c         1 MOL      0.556402
     72 O13        -3.3260   -3.4370    2.5140 o         1 MOL     -0.559487
     73 C24        -0.8610   -4.4510    3.6270 c3        1 MOL      0.347335
     74 C25         0.2720   -5.4570    3.4910 c3        1 MOL     -0.412571
     75 O14        -0.5340   -3.7280    4.8210 oh        1 MOL     -0.589954
     76 H29         0.4780   -2.1540    2.9720 hn        1 MOL      0.411837
     77 H30        -1.0510   -4.2950    1.5280 h1        1 MOL      0.115204
     78 H31        -1.7790   -5.0350    3.6870 h1        1 MOL      0.015619
     79 H32        -0.6810   -4.3960    5.4920 ho        1 MOL      0.389081
     80 H33         0.2920   -6.1250    4.3550 hc        1 MOL      0.102317
     81 H34         0.0570   -6.0910    2.6250 hc        1 MOL      0.102317
     82 H35         1.2430   -4.9680    3.3590 hc        1 MOL      0.102317
     83 N9         -2.1070   -1.5290    2.3620 n         1 MOL     -0.341699
     84 C26        -3.2250   -0.5670    2.3660 c3        1 MOL     -0.014282
     85 C27        -3.1740    0.3030    1.0990 c         1 MOL      0.396379
     86 O15        -2.1280    0.9210    0.8670 o         1 MOL     -0.526045
     87 C28        -3.2500    0.3160    3.6660 c3        1 MOL      0.207513
     88 C29        -3.2180   -0.4580    4.9980 c3        1 MOL     -0.132065
     89 C30        -4.3530    1.4410    3.6610 c3        1 MOL     -0.419387
     90 C31        -4.3720   -1.4360    5.3400 c3        1 MOL     -0.316212
     91 H36        -1.2230   -1.0910    2.5810 hn        1 MOL      0.239666
     92 H37        -4.0990   -1.2120    2.3410 h1        1 MOL      0.188583
     93 H38        -2.2700    0.7950    3.7690 hc        1 MOL     -0.037354
     94 H39        -3.2090    0.3100    5.7700 hc        1 MOL      0.050911
     95 H40        -2.2510   -0.9540    5.0390 hc        1 MOL      0.050911
     96 H41        -4.6580    1.8030    4.6490 hc        1 MOL      0.138366
     97 H42        -3.9740    2.2210    2.9930 hc        1 MOL      0.138366
     98 H43        -5.2300    1.0610    3.1270 hc        1 MOL      0.138366
     99 H44        -4.1010   -2.0280    6.2070 hc        1 MOL      0.086523
    100 H45        -5.2550   -0.8310    5.5480 hc        1 MOL      0.086523
    101 H46        -4.6440   -2.0270    4.4600 hc        1 MOL      0.086523
    102 N10        -4.2040    0.3530    0.2050 n         1 MOL     -0.363514
    103 C32        -5.3750   -0.5550    0.1430 c3        1 MOL      0.152247
    104 C33        -6.5830    0.1460   -0.4540 c         1 MOL      0.458554
    105 O16        -6.4250    1.2240   -1.0870 o         1 MOL     -0.466938
    106 C34        -5.1580   -1.9060   -0.5430 c3        1 MOL     -0.293946
    107 C35        -4.8490   -1.7650   -2.0750 c         1 MOL      0.735861
    108 O17        -5.8170   -1.7900   -2.8520 o         1 MOL     -0.715072
    109 O18        -3.7300   -1.5850   -2.5750 o         1 MOL     -0.715072
    110 H47        -4.1070    0.9980   -0.5670 hn        1 MOL      0.303529
    111 H48        -5.6540   -0.9350    1.1290 h1        1 MOL     -0.010055
    112 H49        -6.0430   -2.5410   -0.4850 hc        1 MOL      0.057776
    113 H50        -4.3000   -2.4210   -0.1300 hc        1 MOL      0.057776
    114 N11        -7.8150   -0.4140   -0.3450 n         1 MOL     -0.503570
    115 C36        -9.0500   -0.0130   -1.0290 c3        1 MOL      0.546295
    116 C37       -10.1490    0.3020   -0.1020 c         1 MOL      0.055309
    117 O19       -10.1190   -0.1400    1.0750 o         1 MOL     -0.490374
    118 C38        -9.4450   -1.1120   -1.9760 c3        1 MOL     -0.160054
    119 C39        -9.6440   -2.4670   -1.3570 ca        1 MOL      0.054838
    120 C40        -8.6350   -3.4190   -1.1770 ca        1 MOL     -0.079631
    121 C41       -10.9250   -2.8430   -0.8870 ca        1 MOL     -0.079631
    122 C42        -8.8940   -4.7070   -0.7380 ca        1 MOL     -0.152242
    123 C43       -11.2410   -4.1230   -0.3350 ca        1 MOL     -0.152242
    124 C44       -10.2120   -5.1000   -0.3100 ca        1 MOL     -0.133810
    125 H51        -7.8420   -1.2480    0.2170 hn        1 MOL      0.304480
    126 H52        -8.8520    0.8930   -1.5910 h1        1 MOL     -0.069467
    127 H53        -8.7990   -0.9900   -2.8460 hc        1 MOL      0.038103
    128 H54       -10.4450   -0.8870   -2.3610 hc        1 MOL      0.038103
    129 H55        -7.6490   -3.1550   -1.5350 ha        1 MOL      0.073942
    130 H56       -11.7850   -2.1960   -0.9440 ha        1 MOL      0.073942
    131 H57        -8.1760   -5.5080   -0.8420 ha        1 MOL      0.111208
    132 H58       -12.2610   -4.3830   -0.0830 ha        1 MOL      0.111208
    133 H59       -10.5030   -6.0840    0.0230 ha        1 MOL      0.101118
    134 N12       -11.1790    1.0660   -0.5150 n         1 MOL      0.299559
    135 C45       -11.2370    1.8370   -1.7500 c3        1 MOL      0.113311
    136 C46       -10.2650    2.9910   -1.7860 c         1 MOL      0.563654
    137 O20        -9.9690    3.4470   -2.8550 o         1 MOL     -0.557531
    138 C47       -12.7100    2.2400   -1.9150 c3        1 MOL     -0.584505
    139 C48       -13.4760    1.6530   -0.7790 c3        1 MOL      0.090318
    140 C49       -12.4180    1.2030    0.2330 c3        1 MOL     -0.260319
    141 H60       -11.0160    1.3010   -2.6730 h1        1 MOL      0.020493
    142 H61       -12.8690    3.3090   -1.7660 hc        1 MOL      0.178360
    143 H62       -13.1140    1.7730   -2.8120 hc        1 MOL      0.178360
    144 H63       -14.1450    2.3910   -0.3300 hc        1 MOL      0.022380
    145 H64       -14.0930    0.7840   -1.0080 hc        1 MOL      0.022380
    146 H65       -12.1530    1.9000    1.0420 h1        1 MOL      0.088200
    147 H66       -12.7000    0.1900    0.5050 h1        1 MOL      0.088200
    148 N13        -9.6120    3.3910   -0.6350 n         1 MOL     -0.638596
    149 C50        -8.2470    4.0070   -0.6340 c3        1 MOL      0.504527
    150 C51        -8.1320    5.2550   -1.5420 c         1 MOL      0.380771
    151 O21        -8.6970    6.2660   -1.1620 o         1 MOL     -0.560098
    152 C52        -7.8680    4.3930    0.8190 c3        1 MOL     -0.100916
    153 C53        -7.5170    3.1890    1.6590 c3        1 MOL      0.003601
    154 C54        -7.5440    3.4930    3.1310 c         1 MOL      0.779615
    155 O22        -8.1910    2.7470    3.8900 o         1 MOL     -0.743597
    156 O23        -6.9370    4.4520    3.6490 o         1 MOL     -0.743597
    157 H67       -10.0520    2.9610    0.1630 hn        1 MOL      0.321689
    158 H68        -7.5690    3.2130   -0.9460 h1        1 MOL     -0.002233
    159 H69        -8.7430    4.8800    1.2530 hc        1 MOL     -0.000499
    160 H70        -7.0280    5.0770    0.8060 hc        1 MOL     -0.000499
    161 H71        -6.5050    2.8650    1.3970 hc        1 MOL     -0.090020
    162 H72        -8.1610    2.3360    1.4350 hc        1 MOL     -0.090020
    163 N14        -7.4970    5.2990   -2.7410 n         1 MOL     -0.352245
    164 C55        -6.6520    4.2880   -3.3510 c3        1 MOL     -0.043242
    165 H73        -6.5060    3.4660   -2.6510 h1        1 MOL      0.046759
    166 H74        -7.1310    3.9130   -4.2560 h1        1 MOL      0.046759
    167 H75        -5.6860    4.7250   -3.6040 h1        1 MOL      0.046759
    168 H76        -7.5870    6.1720   -3.2520 hn        1 MOL      0.263332
    169 Ca1         5.9490    0.5490   -0.6580 Ca        1 MOL      1.746499
    170 O24         4.3790    2.5360   -1.7330 oh        1 MOL     -0.816331
    171 H77         3.4680    2.4660   -1.9830 ho        1 MOL      0.404814
    172 H78         4.8290    2.8380   -2.5200 ho        1 MOL      0.404814
    173 O25         4.8000   -1.1080    1.0330 oh        1 MOL     -0.816331
    174 H79         3.9210   -1.1170    1.4150 ho        1 MOL      0.404814
    175 H80         5.3190   -1.6700    1.6110 ho        1 MOL      0.404814
    176 O26         5.5290    0.2370   -3.3400 oh        1 MOL     -0.816331
    177 H81         5.4810    1.0880   -3.7760 ho        1 MOL      0.404814
    178 H82         4.8280   -0.2780   -3.7420 ho        1 MOL      0.404814
    179 O27         3.4290   -0.3270   -1.2410 oh        1 MOL     -0.816331
    180 H83         2.6400    0.1570   -0.9980 ho        1 MOL      0.404814
    181 H84         3.4110   -1.0990   -0.6880 ho        1 MOL      0.404814
    182 O28         4.3800    1.9300    1.3830 oh        1 MOL     -0.816331
    183 H85         4.4580    1.9110    2.3430 ho        1 MOL      0.404814
    184 H86         3.8130    2.6730    1.2070 ho        1 MOL      0.404814
@<TRIPOS>BOND
     1    1    2 1   
     2    1    4 1   
     3    1    5 1   
     4    1    6 1   
     5    2    3 2   
     6    2    7 1   
     7    7    8 1   
     8    7   15 1   
     9    8    9 1   
    10    8   11 1   
    11    8   16 1   
    12    9   10 2   
    13    9   19 1   
    14   11   12 1   
    15   11   17 1   
    16   11   18 1   
    17   12   13 1   
    18   12   14 1   
    19   19   20 1   
    20   19   24 1   
    21   20   21 1   
    22   20   23 1   
    23   20   25 1   
    24   21   22 2   
    25   21   29 1   
    26   23   26 1   
    27   23   27 1   
    28   23   28 1   
    29   29   30 1   
    30   29   37 1   
    31   30   31 1   
    32   30   33 1   
    33   30   38 1   
    34   31   32 2   
    35   31   41 1   
    36   33   34 1   
    37   33   39 1   
    38   33   40 1   
    39   34   35 1   
    40   34   36 1   
    41   41   42 1   
    42   41   45 1   
    43   42   43 1   
    44   42   46 1   
    45   42   47 1   
    46   43   44 2   
    47   43   48 1   
    48   48   49 1   
    49   48   56 1   
    50   49   50 1   
    51   49   52 1   
    52   49   57 1   
    53   50   51 2   
    54   50   62 1   
    55   52   53 1   
    56   52   58 1   
    57   52   59 1   
    58   53   54 1   
    59   53   55 2   
    60   54   60 1   
    61   54   61 1   
    62   62   63 1   
    63   62   66 1   
    64   63   64 1   
    65   63   67 1   
    66   63   68 1   
    67   64   65 2   
    68   64   69 1   
    69   69   70 1   
    70   69   76 1   
    71   70   71 1   
    72   70   73 1   
    73   70   77 1   
    74   71   72 2   
    75   71   83 1   
    76   73   74 1   
    77   73   75 1   
    78   73   78 1   
    79   74   80 1   
    80   74   81 1   
    81   74   82 1   
    82   75   79 1   
    83   83   84 1   
    84   83   91 1   
    85   84   85 1   
    86   84   87 1   
    87   84   92 1   
    88   85   86 2   
    89   85  102 1   
    90   87   88 1   
    91   87   89 1   
    92   87   93 1   
    93   88   90 1   
    94   88   94 1   
    95   88   95 1   
    96   89   96 1   
    97   89   97 1   
    98   89   98 1   
    99   90   99 1   
   100   90  100 1   
   101   90  101 1   
   102  102  103 1   
   103  102  110 1   
   104  103  104 1   
   105  103  106 1   
   106  103  111 1   
   107  104  105 2   
   108  104  114 1   
   109  106  107 1   
   110  106  112 1   
   111  106  113 1   
   112  107  108 1   
   113  107  109 1   
   114  114  115 1   
   115  114  125 1   
   116  115  116 1   
   117  115  118 1   
   118  115  126 1   
   119  116  117 2   
   120  116  134 1   
   121  118  119 1   
   122  118  127 1   
   123  118  128 1   
   124  119  120 ar  
   125  119  121 ar  
   126  120  122 ar  
   127  120  129 1   
   128  121  123 ar  
   129  121  130 1   
   130  122  124 ar  
   131  122  131 1   
   132  123  124 ar  
   133  123  132 1   
   134  124  133 1   
   135  134  135 1   
   136  134  140 1   
   137  135  136 1   
   138  135  138 1   
   139  135  141 1   
   140  136  137 2   
   141  136  148 1   
   142  138  139 1   
   143  138  142 1   
   144  138  143 1   
   145  139  140 1   
   146  139  144 1   
   147  139  145 1   
   148  140  146 1   
   149  140  147 1   
   150  148  149 1   
   151  148  157 1   
   152  149  150 1   
   153  149  152 1   
   154  149  158 1   
   155  150  151 2   
   156  150  163 1   
   157  152  153 1   
   158  152  159 1   
   159  152  160 1   
   160  153  154 1   
   161  153  161 1   
   162  153  162 1   
   163  154  155 1   
   164  154  156 1   
   165  163  164 1   
   166  163  168 1   
   167  164  165 1   
   168  164  166 1   
   169  164  167 1   
   170  170  171 1   
   171  170  172 1   
   172  173  174 1   
   173  173  175 1   
   174  176  177 1   
   175  176  178 1   
   176  179  180 1   
   177  179  181 1   
   178  182  183 1   
   179  182  184 1   
@<TRIPOS>SUBSTRUCTURE
     1 MOL         1 TEMP              0 ****  ****    0 ROOT
