@<TRIPOS>MOLECULE
MOL
  192   187     1     0     0
SMALL
resp


@<TRIPOS>ATOM
      1 C1          9.8270    1.0800    1.9140 c3        1 MOL     -0.592932
      2 C2          8.6490    0.7230    1.0320 c         1 MOL      0.771587
      3 O1          7.5470    0.5970    1.5440 o         1 MOL     -0.645884
      4 H1          9.5090    1.7960    2.6720 hc        1 MOL      0.150504
      5 H2         10.2040    0.1800    2.4000 hc        1 MOL      0.150504
      6 H3         10.6160    1.5230    1.3050 hc        1 MOL      0.150504
      7 N1          8.9190    0.4380   -0.2600 n         1 MOL     -0.548492
      8 C3          7.9040    0.1470   -1.2780 c3        1 MOL      0.115266
      9 C4          7.3520   -1.3230   -1.3310 c         1 MOL      0.317017
     10 O2          7.6170   -2.0960   -2.2610 o         1 MOL     -0.410480
     11 C5          8.3620    0.5910   -2.6850 c3        1 MOL     -0.183461
     12 C6          9.7370   -0.0070   -3.2550 c         1 MOL      0.599891
     13 O3         10.0520   -0.0100   -4.4800 o         1 MOL     -0.590659
     14 O4         10.4800   -0.6920   -2.4500 o         1 MOL     -0.590659
     15 H4          9.8760    0.5150   -0.5610 hn        1 MOL      0.258211
     16 H5          7.1540    0.8800   -0.9850 h1        1 MOL      0.060965
     17 H6          8.5540    1.6540   -2.5410 hc        1 MOL      0.066034
     18 H7          7.5180    0.6230   -3.3760 hc        1 MOL      0.066034
     19 N2          6.7670   -1.7920   -0.2540 n         1 MOL     -0.110770
     20 C7          6.3890   -3.2020   -0.0040 c3        1 MOL     -0.013809
     21 C8          4.9060   -3.5230   -0.5210 c         1 MOL      0.489773
     22 O5          4.7420   -4.3960   -1.3840 o         1 MOL     -0.517385
     23 C9          6.5640   -3.6760    1.4490 c3        1 MOL      0.103048
     24 C10         8.0420   -3.4140    1.9490 c3        1 MOL     -0.037784
     25 C11         8.2360   -3.9620    3.3790 c3        1 MOL     -0.340796
     26 C12         9.7500   -3.7910    3.6620 c3        1 MOL      0.327318
     27 N3         10.1630   -4.2830    4.9430 n4        1 MOL     -0.389062
     28 H8          6.6200   -1.0290    0.3910 hn        1 MOL      0.159687
     29 H9          7.0170   -3.7980   -0.6570 h1        1 MOL      0.060486
     30 H10         6.3360   -4.7400    1.5580 hc        1 MOL     -0.004528
     31 H11         5.7910   -3.1490    1.9960 hc        1 MOL     -0.004528
     32 H12         8.2320   -2.3380    1.9020 hc        1 MOL      0.049855
     33 H13         8.7330   -3.8890    1.2580 hc        1 MOL      0.049855
     34 H14         8.1180   -5.0500    3.3410 hc        1 MOL      0.105962
     35 H15         7.6370   -3.4810    4.1430 hc        1 MOL      0.105962
     36 H16        10.0590   -2.7460    3.5570 hx        1 MOL      0.009187
     37 H17        10.3810   -4.2620    2.9160 hx        1 MOL      0.009187
     38 H18        11.0820   -3.8930    5.1550 hn        1 MOL      0.279871
     39 H19         9.4950   -3.9930    5.6430 hn        1 MOL      0.279871
     40 H20        10.1550   -5.2840    4.8300 hn        1 MOL      0.279871
     41 N4          3.7810   -2.9100   -0.1270 n         1 MOL     -0.607203
     42 C13         3.7040   -1.6900    0.6510 c3        1 MOL      0.505268
     43 C14         3.7870   -0.4320   -0.1220 c         1 MOL      0.172264
     44 O6          3.8980   -0.4830   -1.3640 o         1 MOL     -0.436458
     45 C15         2.5560   -1.7510    1.6610 c3        1 MOL     -0.376649
     46 C16         1.2000   -2.0650    1.0610 c         1 MOL      0.958454
     47 O7          0.7250   -1.2010    0.3780 o         1 MOL     -0.796256
     48 O8          0.6120   -3.1300    1.2530 o         1 MOL     -0.796256
     49 H21         3.0850   -3.1350   -0.8170 hn        1 MOL      0.380033
     50 H22         4.6040   -1.6650    1.2630 h1        1 MOL     -0.020444
     51 H23         2.4530   -0.8100    2.1900 hc        1 MOL      0.024196
     52 H24         2.8010   -2.5240    2.3880 hc        1 MOL      0.024196
     53 N5          3.9530    0.7230    0.5090 n         1 MOL     -0.168871
     54 C17         4.0000    2.0480   -0.0380 c3        1 MOL     -0.209891
     55 C18         2.7580    2.5850   -0.7000 c         1 MOL      0.494474
     56 O9          1.6820    2.0050   -0.5910 o         1 MOL     -0.385675
     57 H25         4.0810    0.6190    1.4980 hn        1 MOL      0.235847
     58 H26         4.7670    2.0180   -0.8070 h1        1 MOL      0.101750
     59 H27         4.3400    2.7640    0.7230 h1        1 MOL      0.101750
     60 N6          2.9510    3.6790   -1.4120 n         1 MOL     -0.410199
     61 C19         1.9380    4.4630   -2.0970 c3        1 MOL      0.054102
     62 C20         2.3870    5.9290   -2.2290 c         1 MOL      0.509256
     63 O10         3.5750    6.2390   -2.4000 o         1 MOL     -0.517518
     64 C21         1.7780    3.8910   -3.5510 c3        1 MOL     -0.285035
     65 C22         1.2190    2.4470   -3.5850 c         1 MOL      0.717422
     66 O11         0.1190    2.1690   -3.0450 o         1 MOL     -0.677992
     67 O12         1.9190    1.5700   -4.1400 o         1 MOL     -0.677992
     68 H28         3.9030    3.9640   -1.5850 hn        1 MOL      0.289415
     69 H29         1.0110    4.3220   -1.5470 h1        1 MOL      0.063665
     70 H30         2.7480    3.8890   -4.0400 hc        1 MOL      0.091007
     71 H31         1.0880    4.4780   -4.1630 hc        1 MOL      0.091007
     72 N7          1.4170    6.8750   -2.1490 n         1 MOL     -0.476081
     73 C23        -0.0370    6.6460   -2.1890 c3        1 MOL      0.074057
     74 C24        -0.6310    6.2390   -0.8440 c         1 MOL      0.593847
     75 O13        -0.0640    6.4170    0.2390 o         1 MOL     -0.539496
     76 H32         1.7450    7.8290   -2.2070 hn        1 MOL      0.313399
     77 H33        -0.3370    5.9880   -2.9940 h1        1 MOL      0.050798
     78 H34        -0.5290    7.5530   -2.5290 h1        1 MOL      0.050798
     79 N8         -1.6980    5.4470   -0.9380 n         1 MOL     -0.706430
     80 C25        -2.4750    4.9730    0.2190 c3        1 MOL      0.315175
     81 C26        -1.8650    3.6720    0.8150 c         1 MOL      0.566960
     82 O14        -1.3310    2.8560    0.0640 o         1 MOL     -0.691440
     83 C27        -3.8920    4.5710   -0.1710 c3        1 MOL      0.363882
     84 C28        -4.5280    5.6760   -1.0180 c3        1 MOL     -0.424736
     85 O15        -4.6530    4.3030    0.9530 oh        1 MOL     -0.691448
     86 H35        -2.0070    5.1330   -1.8480 hn        1 MOL      0.305275
     87 H36        -2.6550    5.6710    1.0340 h1        1 MOL      0.029440
     88 H37        -3.8280    3.6900   -0.8120 h1        1 MOL      0.018603
     89 H38        -5.5660    4.2270    0.6440 ho        1 MOL      0.429002
     90 H39        -5.5720    5.3940   -1.1450 hc        1 MOL      0.108682
     91 H40        -4.3720    6.6100   -0.4680 hc        1 MOL      0.108682
     92 H41        -3.9930    5.6830   -1.9650 hc        1 MOL      0.108682
     93 N9         -1.8740    3.4890    2.1510 n         1 MOL     -0.504329
     94 C29        -1.1780    2.4270    2.9380 c3        1 MOL      0.009647
     95 C30        -1.6760    1.0510    2.6440 c         1 MOL      0.552596
     96 O16        -1.7620    0.6380    1.5000 o         1 MOL     -0.459973
     97 C31         0.3470    2.5130    2.8290 c3        1 MOL      0.735221
     98 C32         0.7950    3.9700    2.8290 c3        1 MOL     -0.016285
     99 C33         1.0900    1.6230    3.8500 c3        1 MOL     -0.448552
    100 C34         0.4170    4.7350    4.0380 c3        1 MOL     -0.201720
    101 H42        -2.3390    4.2240    2.6650 hn        1 MOL      0.281143
    102 H43        -1.4160    2.7040    3.9670 h1        1 MOL     -0.003452
    103 H44         0.5930    2.1790    1.8240 hc        1 MOL     -0.329613
    104 H45         0.4450    4.4210    1.9000 hc        1 MOL      0.030845
    105 H46         1.8800    4.0190    2.7780 hc        1 MOL      0.030845
    106 H47         0.7650    0.5920    3.7020 hc        1 MOL      0.082736
    107 H48         2.1510    1.7410    3.6180 hc        1 MOL      0.082736
    108 H49         0.8720    1.9140    4.8790 hc        1 MOL      0.082736
    109 H50        -0.2820    5.5040    3.7100 hc        1 MOL      0.032208
    110 H51         0.0500    4.1440    4.8830 hc        1 MOL      0.032208
    111 H52         1.2990    5.2010    4.4790 hc        1 MOL      0.032208
    112 N10        -2.1060    0.3520    3.6490 n         1 MOL     -0.448091
    113 C35        -2.4470   -1.0810    3.6170 c3        1 MOL     -0.319469
    114 C36        -3.7570   -1.3140    2.8750 c         1 MOL      0.454856
    115 O17        -4.0840   -2.4900    2.6380 o         1 MOL     -0.534075
    116 C37        -2.3060   -1.7270    5.0330 c3        1 MOL      0.553899
    117 C38        -3.2740   -1.2890    6.0610 c3        1 MOL     -0.302150
    118 O18        -1.0800   -1.3710    5.5450 oh        1 MOL     -0.610120
    119 H53        -1.9900    0.7370    4.5760 hn        1 MOL      0.294373
    120 H54        -1.6560   -1.5840    3.0730 h1        1 MOL      0.142665
    121 H55        -2.3790   -2.8170    4.9890 h1        1 MOL      0.003059
    122 H56        -0.5180   -2.1000    5.2450 ho        1 MOL      0.387706
    123 H57        -3.1100   -1.9310    6.9320 hc        1 MOL      0.070282
    124 H58        -3.2400   -0.1980    6.1200 hc        1 MOL      0.070282
    125 H59        -4.2790   -1.4680    5.6920 hc        1 MOL      0.070282
    126 N11        -4.6290   -0.3390    2.5800 n         1 MOL      0.015704
    127 C39        -6.0020   -0.5610    2.1120 c3        1 MOL     -0.529280
    128 C40        -6.1360   -0.9560    0.6270 c         1 MOL      0.667342
    129 O19        -5.5780   -0.2470   -0.2440 o         1 MOL     -0.533803
    130 C41        -6.9510    0.6130    2.3890 c3        1 MOL      0.448261
    131 C42        -7.4120    0.5830    3.8880 c3        1 MOL     -0.455854
    132 O20        -6.4100    1.9010    2.0510 oh        1 MOL     -0.645731
    133 H60        -4.3200    0.6200    2.6680 hn        1 MOL      0.124453
    134 H61        -6.2670   -1.4250    2.7200 h1        1 MOL      0.168478
    135 H62        -7.8600    0.4660    1.8030 h1        1 MOL      0.050204
    136 H63        -5.6330    2.1240    2.5780 ho        1 MOL      0.417653
    137 H64        -8.0410    1.4450    4.1050 hc        1 MOL      0.117244
    138 H65        -7.9050   -0.3740    4.0320 hc        1 MOL      0.117244
    139 H66        -6.5480    0.6550    4.5430 hc        1 MOL      0.117244
    140 N12        -6.7800   -2.0960    0.3880 n         1 MOL     -0.415147
    141 C43        -7.1300   -2.6170   -0.9570 c3        1 MOL      0.071381
    142 C44        -5.8800   -2.7510   -1.8190 c         1 MOL      0.532569
    143 O21        -5.9140   -2.3480   -2.9650 o         1 MOL     -0.512777
    144 C45        -8.3660   -1.8140   -1.6010 c3        1 MOL     -0.222792
    145 C46        -9.7000   -1.8960   -0.6640 c3        1 MOL     -0.023428
    146 C47       -10.7700   -0.8910   -1.2210 c3        1 MOL     -0.012645
    147 C48       -12.0340   -1.1610   -0.4150 c3        1 MOL      0.039567
    148 N13       -13.1320   -0.4720   -1.1050 n4        1 MOL     -0.082272
    149 H67        -7.0700   -2.5440    1.2470 hn        1 MOL      0.261309
    150 H68        -7.4480   -3.6540   -0.8450 h1        1 MOL      0.067732
    151 H69        -8.6160   -2.1730   -2.5930 hc        1 MOL      0.100141
    152 H70        -8.0550   -0.7730   -1.6850 hc        1 MOL      0.100141
    153 H71        -9.4780   -1.6670    0.3790 hc        1 MOL      0.033812
    154 H72       -10.0220   -2.9400   -0.7540 hc        1 MOL      0.033812
    155 H73       -10.9060   -1.0500   -2.2880 hc        1 MOL      0.037649
    156 H74       -10.5210    0.1750   -1.1400 hc        1 MOL      0.037649
    157 H75       -11.8180   -0.7440    0.5710 hx        1 MOL      0.050543
    158 H76       -12.3060   -2.2040   -0.2500 hx        1 MOL      0.050543
    159 H77       -13.5390   -1.0640   -1.8180 hn        1 MOL      0.163200
    160 H78       -13.9420   -0.3000   -0.5320 hn        1 MOL      0.163200
    161 H79       -12.8610    0.4100   -1.5210 hn        1 MOL      0.163200
    162 N14        -4.7390   -3.2210   -1.2870 n         1 MOL     -0.406800
    163 C49        -3.3860   -3.2090   -1.8590 c3        1 MOL      0.023286
    164 C50        -2.3530   -2.7900   -0.7530 c         1 MOL      0.491539
    165 O22        -1.8550   -1.6490   -0.7060 o         1 MOL     -0.682424
    166 C51        -3.0030   -4.4960   -2.6450 c3        1 MOL     -0.074900
    167 C52        -3.7600   -4.6340   -3.9350 c3        1 MOL     -0.115214
    168 C53        -3.6080   -5.9940   -4.5030 c         1 MOL      0.683061
    169 O23        -2.8400   -6.1200   -5.4900 o         1 MOL     -0.631430
    170 O24        -4.1540   -6.9800   -3.9540 o         1 MOL     -0.631430
    171 H80        -4.7990   -3.5150   -0.3180 hn        1 MOL      0.242021
    172 H81        -3.3470   -2.3860   -2.5760 h1        1 MOL      0.085867
    173 H82        -3.2380   -5.4200   -2.1130 hc        1 MOL      0.067857
    174 H83        -1.9330   -4.5120   -2.8280 hc        1 MOL      0.067857
    175 H84        -3.5080   -3.8680   -4.6680 hc        1 MOL      0.023175
    176 H85        -4.8370   -4.6070   -3.7580 hc        1 MOL      0.023175
    177 N15        -1.9220   -3.5440    0.1430 n         1 MOL     -0.228765
    178 C54        -2.2660   -4.9680    0.3440 c3        1 MOL     -0.111703
    179 H86        -1.3610   -5.5730    0.2780 h1        1 MOL      0.053549
    180 H87        -2.7190   -5.0990    1.3270 h1        1 MOL      0.053549
    181 H88        -2.9700   -5.2840   -0.4260 h1        1 MOL      0.053549
    182 H89        -1.0860   -3.2850    0.6470 hn        1 MOL      0.366292
    183 Ca1        -0.7180    0.6540   -1.0540 Ca        1 MOL      1.801061
    184 O25        -1.4270   -0.1680   -3.5770 oh        1 MOL     -0.910791
    185 H90        -1.4470   -1.1220   -3.7250 ho        1 MOL      0.436235
    186 H91        -1.5860    0.2050   -4.4500 ho        1 MOL      0.436235
    187 O26        -3.3510    1.1000   -0.7780 oh        1 MOL     -0.910791
    188 H92        -3.6630    0.3310   -0.2960 ho        1 MOL      0.436235
    189 H93        -4.1480    1.5830   -1.0070 ho        1 MOL      0.436235
    190 O27         1.3200   -0.3730   -2.4360 oh        1 MOL     -0.910791
    191 H94         2.1930   -0.2440   -2.0700 ho        1 MOL      0.436235
    192 H95         1.2810    0.2200   -3.1910 ho        1 MOL      0.436235
@<TRIPOS>BOND
     1    1    2 1   
     2    1    4 1   
     3    1    5 1   
     4    1    6 1   
     5    2    3 2   
     6    2    7 1   
     7    7    8 1   
     8    7   15 1   
     9    8    9 1   
    10    8   11 1   
    11    8   16 1   
    12    9   10 2   
    13    9   19 1   
    14   11   12 1   
    15   11   17 1   
    16   11   18 1   
    17   12   13 1   
    18   12   14 1   
    19   19   20 1   
    20   19   28 1   
    21   20   21 1   
    22   20   23 1   
    23   20   29 1   
    24   21   22 2   
    25   21   41 1   
    26   23   24 1   
    27   23   30 1   
    28   23   31 1   
    29   24   25 1   
    30   24   32 1   
    31   24   33 1   
    32   25   26 1   
    33   25   34 1   
    34   25   35 1   
    35   26   27 1   
    36   26   36 1   
    37   26   37 1   
    38   27   38 1   
    39   27   39 1   
    40   27   40 1   
    41   41   42 1   
    42   41   49 1   
    43   42   43 1   
    44   42   45 1   
    45   42   50 1   
    46   43   44 2   
    47   43   53 1   
    48   45   46 1   
    49   45   51 1   
    50   45   52 1   
    51   46   47 1   
    52   46   48 1   
    53   53   54 1   
    54   53   57 1   
    55   54   55 1   
    56   54   58 1   
    57   54   59 1   
    58   55   56 2   
    59   55   60 1   
    60   60   61 1   
    61   60   68 1   
    62   61   62 1   
    63   61   64 1   
    64   61   69 1   
    65   62   63 2   
    66   62   72 1   
    67   64   65 1   
    68   64   70 1   
    69   64   71 1   
    70   65   66 1   
    71   65   67 1   
    72   72   73 1   
    73   72   76 1   
    74   73   74 1   
    75   73   77 1   
    76   73   78 1   
    77   74   75 2   
    78   74   79 1   
    79   79   80 1   
    80   79   86 1   
    81   80   81 1   
    82   80   83 1   
    83   80   87 1   
    84   81   82 2   
    85   81   93 1   
    86   83   84 1   
    87   83   85 1   
    88   83   88 1   
    89   84   90 1   
    90   84   91 1   
    91   84   92 1   
    92   85   89 1   
    93   93   94 1   
    94   93  101 1   
    95   94   95 1   
    96   94   97 1   
    97   94  102 1   
    98   95   96 2   
    99   95  112 1   
   100   97   98 1   
   101   97   99 1   
   102   97  103 1   
   103   98  100 1   
   104   98  104 1   
   105   98  105 1   
   106   99  106 1   
   107   99  107 1   
   108   99  108 1   
   109  100  109 1   
   110  100  110 1   
   111  100  111 1   
   112  112  113 1   
   113  112  119 1   
   114  113  114 1   
   115  113  116 1   
   116  113  120 1   
   117  114  115 2   
   118  114  126 1   
   119  116  117 1   
   120  116  118 1   
   121  116  121 1   
   122  117  123 1   
   123  117  124 1   
   124  117  125 1   
   125  118  122 1   
   126  126  127 1   
   127  126  133 1   
   128  127  128 1   
   129  127  130 1   
   130  127  134 1   
   131  128  129 2   
   132  128  140 1   
   133  130  131 1   
   134  130  132 1   
   135  130  135 1   
   136  131  137 1   
   137  131  138 1   
   138  131  139 1   
   139  132  136 1   
   140  140  141 1   
   141  140  149 1   
   142  141  142 1   
   143  141  144 1   
   144  141  150 1   
   145  142  143 2   
   146  142  162 1   
   147  144  145 1   
   148  144  151 1   
   149  144  152 1   
   150  145  146 1   
   151  145  153 1   
   152  145  154 1   
   153  146  147 1   
   154  146  155 1   
   155  146  156 1   
   156  147  148 1   
   157  147  157 1   
   158  147  158 1   
   159  148  159 1   
   160  148  160 1   
   161  148  161 1   
   162  162  163 1   
   163  162  171 1   
   164  163  164 1   
   165  163  166 1   
   166  163  172 1   
   167  164  165 2   
   168  164  177 1   
   169  166  167 1   
   170  166  173 1   
   171  166  174 1   
   172  167  168 1   
   173  167  175 1   
   174  167  176 1   
   175  168  169 1   
   176  168  170 1   
   177  177  178 1   
   178  177  182 1   
   179  178  179 1   
   180  178  180 1   
   181  178  181 1   
   182  184  185 1   
   183  184  186 1   
   184  187  188 1   
   185  187  189 1   
   186  190  191 1   
   187  190  192 1   
@<TRIPOS>SUBSTRUCTURE
     1 MOL         1 TEMP              0 ****  ****    0 ROOT
