@<TRIPOS>MOLECULE
MOL
  189   185     1     0     0
SMALL
resp


@<TRIPOS>ATOM
      1 C1         11.2910    5.6380   -3.0020 c3        1 MOL     -0.385538
      2 C2         11.0870    4.4380   -2.0060 c         1 MOL      0.465324
      3 O1         11.8730    3.3960   -2.1050 o         1 MOL     -0.562205
      4 H1         12.1770    5.4580   -3.6110 hc        1 MOL      0.113277
      5 H2         10.4180    5.7270   -3.6490 hc        1 MOL      0.113277
      6 H3         11.4200    6.5610   -2.4380 hc        1 MOL      0.113277
      7 N1         10.1890    4.5670   -0.9820 n         1 MOL      0.121533
      8 C3          9.8920    3.5170    0.0680 c3        1 MOL     -0.584676
      9 C4          8.7490    2.5360   -0.2720 c         1 MOL      0.378529
     10 O2          7.5980    2.8790   -0.6010 o         1 MOL     -0.336032
     11 C5          9.4880    4.1590    1.4370 c3        1 MOL      0.081478
     12 C6          8.8680    5.5710    1.3380 c         1 MOL      0.630572
     13 O3          7.8600    5.6610    0.5670 o         1 MOL     -0.673394
     14 O4          9.3980    6.6000    1.8130 o         1 MOL     -0.673394
     15 H4          9.5420    5.3380   -1.0240 hn        1 MOL      0.043712
     16 H5         10.7650    2.8800    0.2400 h1        1 MOL      0.208647
     17 H6         10.2990    4.3030    2.1560 hc        1 MOL      0.039678
     18 H7          8.7340    3.5090    1.9020 hc        1 MOL      0.039678
     19 N2          9.1740    1.2180   -0.2300 n         1 MOL     -0.233740
     20 C7          8.2710    0.0900   -0.4780 c3        1 MOL     -0.129422
     21 C8          7.2100   -0.1080    0.6140 c         1 MOL      0.593968
     22 O5          7.5150   -0.7390    1.6430 o         1 MOL     -0.504379
     23 C9          9.1610   -1.2150   -0.7100 c3        1 MOL     -0.144316
     24 C10         8.3190   -2.4930   -0.9590 c3        1 MOL      0.039622
     25 C11         7.6900   -2.3540   -2.3720 c3        1 MOL     -0.030045
     26 C12         6.9800   -3.5830   -2.8710 c3        1 MOL      0.044163
     27 N3          6.1850   -3.1090   -4.0050 n4        1 MOL     -0.266030
     28 H8         10.1600    1.0020   -0.2190 hn        1 MOL      0.265272
     29 H9          7.7150    0.2560   -1.4050 h1        1 MOL      0.053420
     30 H10         9.7070   -1.4390    0.2150 hc        1 MOL      0.074020
     31 H11         9.8500   -1.0040   -1.5240 hc        1 MOL      0.074020
     32 H12         7.6030   -2.6370   -0.1570 hc        1 MOL      0.039317
     33 H13         8.9790   -3.3620   -1.0210 hc        1 MOL      0.039317
     34 H14         8.5080   -2.1550   -3.0630 hc        1 MOL      0.018783
     35 H15         7.0190   -1.4920   -2.2920 hc        1 MOL      0.018783
     36 H16         6.2800   -3.8900   -2.0900 hx        1 MOL      0.074146
     37 H17         7.6070   -4.4350   -3.1220 hx        1 MOL      0.074146
     38 H18         6.7690   -3.0800   -4.8290 hn        1 MOL      0.297198
     39 H19         5.4600   -3.7840   -4.2560 hn        1 MOL      0.297198
     40 H20         5.7200   -2.2200   -3.9170 hn        1 MOL      0.297198
     41 N4          5.9600    0.3540    0.3210 n         1 MOL     -0.428152
     42 C13         4.8020    0.3340    1.1450 c3        1 MOL      0.191970
     43 C14         3.5250   -0.1320    0.4560 c         1 MOL      0.234035
     44 O6          3.2720    0.2010   -0.7560 o         1 MOL     -0.444342
     45 C15         4.5450    1.7390    1.8650 c3        1 MOL      0.283514
     46 C16         4.7170    2.9520    0.9090 c         1 MOL      0.646206
     47 O7          4.5320    2.9140   -0.3280 o         1 MOL     -0.777316
     48 O8          4.9840    3.9850    1.5200 o         1 MOL     -0.777316
     49 H21         5.9380    0.8460   -0.5600 hn        1 MOL      0.224357
     50 H22         5.1080   -0.3660    1.9260 h1        1 MOL      0.004618
     51 H23         5.3170    1.8160    2.6330 hc        1 MOL     -0.039053
     52 H24         3.5790    1.7930    2.3700 hc        1 MOL     -0.039053
     53 N5          2.5680   -0.8380    1.1080 n         1 MOL     -0.397414
     54 C17         2.7390   -1.4100    2.4500 c3        1 MOL     -0.023528
     55 C18         3.3720   -2.7370    2.3870 c         1 MOL      0.847904
     56 O9          4.3160   -2.9960    1.6090 o         1 MOL     -0.592060
     57 H25         1.8410   -1.2460    0.5430 hn        1 MOL      0.314165
     58 H26         1.7770   -1.4640    2.9590 h1        1 MOL      0.045289
     59 H27         3.4380   -0.8590    3.0670 h1        1 MOL      0.045289
     60 N6          3.0170   -3.6140    3.2290 n         1 MOL     -0.647534
     61 C19         3.4240   -5.0130    3.1930 c3        1 MOL      0.068492
     62 C20         2.2780   -5.9010    2.6070 c         1 MOL      0.564738
     63 O10         1.1140   -5.6350    2.6580 o         1 MOL     -0.524871
     64 C21         3.7700   -5.5130    4.5930 c3        1 MOL     -0.199676
     65 C22         4.9470   -4.7930    5.2180 c         1 MOL      0.766645
     66 O11         6.1140   -5.2290    5.0730 o         1 MOL     -0.664996
     67 O12         4.7010   -3.9050    6.0570 o         1 MOL     -0.664996
     68 H28         2.3710   -3.3920    3.9670 hn        1 MOL      0.321499
     69 H29         4.2890   -5.1040    2.5290 h1        1 MOL      0.020163
     70 H30         3.9950   -6.5660    4.4540 hc        1 MOL      0.038356
     71 H31         2.8650   -5.5060    5.2040 hc        1 MOL      0.038356
     72 N7          2.6760   -6.9070    1.8620 n         1 MOL     -0.308317
     73 C23         1.8010   -7.8330    1.1040 c3        1 MOL     -0.318292
     74 C24         0.9630   -7.1090    0.0000 c         1 MOL      0.635105
     75 O13         0.0130   -7.7000   -0.5190 o         1 MOL     -0.556893
     76 H32         3.6480   -7.1400    1.9410 hn        1 MOL      0.262603
     77 H33         1.1370   -8.3920    1.7770 h1        1 MOL      0.155014
     78 H34         2.4630   -8.5310    0.5930 h1        1 MOL      0.155014
     79 N8          1.3420   -5.8730   -0.3730 n         1 MOL     -0.423977
     80 C25         0.7140   -4.9560   -1.4110 c3        1 MOL     -0.065825
     81 C26         0.4390   -3.5930   -0.8850 c         1 MOL      0.806227
     82 O14         1.2750   -2.9800   -0.1760 o         1 MOL     -0.610472
     83 C27         1.5670   -4.8630   -2.6430 c3        1 MOL      0.274384
     84 C28         0.7750   -4.2810   -3.8320 c3        1 MOL     -0.232636
     85 O15         2.8130   -4.1680   -2.4340 oh        1 MOL     -0.615354
     86 H35         2.0410   -5.3860    0.1680 hn        1 MOL      0.175006
     87 H36        -0.2770   -5.3520   -1.6220 h1        1 MOL      0.081503
     88 H37         1.9580   -5.8550   -2.8790 h1        1 MOL      0.013704
     89 H38         3.2920   -4.5020   -1.6710 ho        1 MOL      0.391906
     90 H39         0.0080   -4.9860   -4.1370 hc        1 MOL      0.067300
     91 H40         0.3300   -3.3280   -3.5520 hc        1 MOL      0.067300
     92 H41         1.4540   -4.1670   -4.6800 hc        1 MOL      0.067300
     93 N9         -0.7750   -3.0740   -1.1100 n         1 MOL     -0.565049
     94 C29        -1.3310   -1.8030   -0.5800 c3        1 MOL     -0.028458
     95 C30        -2.8530   -1.8330   -0.2520 c         1 MOL      0.470482
     96 O16        -3.2500   -1.1150    0.6600 o         1 MOL     -0.490597
     97 C31        -0.9780   -0.6570   -1.5410 c3        1 MOL      0.339132
     98 C32        -1.1280    0.7660   -1.0090 c3        1 MOL     -0.054254
     99 C33        -1.5830   -0.7360   -2.9660 c3        1 MOL     -0.503659
    100 C34        -0.1970    1.1130    0.1690 c3        1 MOL      0.017255
    101 H42        -1.4230   -3.6920   -1.5900 hn        1 MOL      0.271974
    102 H43        -0.7320   -1.5290    0.2950 h1        1 MOL      0.117643
    103 H44         0.1070   -0.7780   -1.6030 hc        1 MOL     -0.055267
    104 H45        -2.1580    0.9010   -0.6920 hc        1 MOL      0.018347
    105 H46        -1.0300    1.5190   -1.7900 hc        1 MOL      0.018347
    106 H47        -1.3420    0.2030   -3.4600 hc        1 MOL      0.114915
    107 H48        -1.1160   -1.5180   -3.5800 hc        1 MOL      0.114915
    108 H49        -2.6440   -0.9690   -3.0100 hc        1 MOL      0.114915
    109 H50         0.8590    1.0860   -0.0780 hc        1 MOL     -0.002504
    110 H51        -0.4270    2.1040    0.5450 hc        1 MOL     -0.002504
    111 H52        -0.3800    0.4950    1.0470 hc        1 MOL     -0.002504
    112 N10        -3.7350   -2.5500   -0.9740 n         1 MOL     -0.409998
    113 C35        -5.1700   -2.5620   -0.5460 c3        1 MOL      0.024979
    114 C36        -6.0700   -2.3350   -1.7670 c         1 MOL      0.647534
    115 O17        -5.7070   -2.6930   -2.9020 o         1 MOL     -0.555585
    116 C37        -5.4200   -3.9090    0.1630 c3        1 MOL      0.331543
    117 C38        -5.1860   -3.7590    1.6420 c3        1 MOL     -0.239995
    118 O18        -6.7340   -4.4250    0.0960 oh        1 MOL     -0.706760
    119 H53        -3.4410   -3.1470   -1.7440 hn        1 MOL      0.271001
    120 H54        -5.4140   -1.7070    0.0980 h1        1 MOL      0.101978
    121 H55        -4.7340   -4.6580   -0.2430 h1        1 MOL      0.000744
    122 H56        -6.7690   -5.3710    0.2690 ho        1 MOL      0.434211
    123 H57        -5.2160   -4.6980    2.1900 hc        1 MOL      0.068679
    124 H58        -4.1770   -3.3630    1.6930 hc        1 MOL      0.068679
    125 H59        -5.7930   -2.9760    2.1050 hc        1 MOL      0.068679
    126 N11        -7.1860   -1.6400   -1.5530 n         1 MOL     -0.652248
    127 C39        -8.1070   -1.0980   -2.6090 c3        1 MOL      0.040544
    128 C40        -8.6320    0.3510   -2.4310 c         1 MOL      0.630960
    129 O19        -8.7510    1.0560   -3.3850 o         1 MOL     -0.538500
    130 C41        -9.3810   -1.9640   -2.8380 c3        1 MOL      0.277968
    131 C42       -10.3200   -1.6190   -3.9400 c3        1 MOL     -0.371221
    132 O20       -10.1800   -1.8620   -1.6710 oh        1 MOL     -0.593484
    133 H60        -7.5490   -1.4550   -0.6250 hn        1 MOL      0.379544
    134 H61        -7.6480   -1.0830   -3.5920 h1        1 MOL      0.113007
    135 H62        -9.1890   -3.0300   -2.9800 h1        1 MOL      0.040090
    136 H63       -10.9100   -2.4610   -1.8670 ho        1 MOL      0.368309
    137 H64       -11.0160   -0.8520   -3.5990 hc        1 MOL      0.100127
    138 H65        -9.7320   -1.2690   -4.7870 hc        1 MOL      0.100127
    139 H66       -10.9500   -2.4500   -4.2690 hc        1 MOL      0.100127
    140 N12        -8.9190    0.7590   -1.1470 n         1 MOL     -0.521852
    141 C43        -9.4510    2.0190   -0.7570 c3        1 MOL      0.168834
    142 C44        -8.8750    2.5740    0.5500 c         1 MOL      0.485742
    143 O21        -8.4540    1.8090    1.4080 o         1 MOL     -0.548021
    144 C45       -10.9590    1.8260   -0.6670 c3        1 MOL     -0.487672
    145 C46       -11.4810    0.8490    0.4470 c3        1 MOL      0.125580
    146 C47       -12.9020    0.2730    0.2140 c3        1 MOL     -0.179764
    147 C48       -13.0670   -0.8270    1.2960 c3        1 MOL      0.073156
    148 N13       -14.4060   -1.3980    1.3730 n4        1 MOL     -0.123043
    149 H67        -8.7460    0.1480   -0.3660 hn        1 MOL      0.275820
    150 H68        -9.2540    2.7660   -1.5240 h1        1 MOL      0.087307
    151 H69       -11.3220    1.4060   -1.6080 hc        1 MOL      0.151090
    152 H70       -11.4370    2.7840   -0.4370 hc        1 MOL      0.151090
    153 H71       -11.5570    1.3390    1.4120 hc        1 MOL      0.038426
    154 H72       -10.8140   -0.0120    0.5530 hc        1 MOL      0.038426
    155 H73       -13.0860   -0.0710   -0.8090 hc        1 MOL      0.068514
    156 H74       -13.5760    1.1040    0.4130 hc        1 MOL      0.068514
    157 H75       -12.8240   -0.3720    2.2560 hx        1 MOL      0.060037
    158 H76       -12.3480   -1.6430    1.1860 hx        1 MOL      0.060037
    159 H77       -14.4490   -2.1820    2.0100 hn        1 MOL      0.196958
    160 H78       -15.0940   -0.6900    1.5530 hn        1 MOL      0.196958
    161 H79       -14.7070   -1.7660    0.4740 hn        1 MOL      0.196958
    162 N14        -8.6420    3.8500    0.6470 n         1 MOL     -0.431750
    163 C49        -7.7580    4.4670    1.6500 c3        1 MOL      0.252733
    164 C50        -6.2230    4.3790    1.2870 c         1 MOL      0.372516
    165 O22        -5.4570    4.1510    2.2390 o         1 MOL     -0.522171
    166 C51        -8.2380    5.8860    1.7940 c3        1 MOL     -0.083612
    167 C52        -7.4840    6.6720    2.8480 c3        1 MOL     -0.077068
    168 C53        -8.0140    8.0920    2.9280 c         1 MOL      0.699435
    169 O23        -7.6200    8.6920    3.9660 o         1 MOL     -0.650763
    170 O24        -8.7140    8.6540    2.0900 o         1 MOL     -0.650763
    171 H80        -9.0870    4.4260   -0.0480 hn        1 MOL      0.241154
    172 H81        -7.9280    4.0140    2.6250 h1        1 MOL      0.059033
    173 H82        -9.2870    5.9840    2.0890 hc        1 MOL      0.009624
    174 H83        -8.1130    6.4050    0.8400 hc        1 MOL      0.009624
    175 H84        -6.4270    6.7630    2.6160 hc        1 MOL      0.027183
    176 H85        -7.5170    6.2160    3.8380 hc        1 MOL      0.027183
    177 N15        -5.6650    4.4970    0.0470 n         1 MOL     -0.278728
    178 C54        -6.2790    4.9550   -1.2220 c3        1 MOL     -0.243263
    179 H86        -5.5190    4.9890   -2.0020 h1        1 MOL      0.111374
    180 H87        -7.0690    4.2640   -1.5160 h1        1 MOL      0.111374
    181 H88        -6.7010    5.9510   -1.0840 h1        1 MOL      0.111374
    182 H89        -4.6640    4.3200    0.1170 hn        1 MOL      0.270824
    183 Ca1         5.6230    5.3220   -0.8660 Ca        1 MOL      1.511233
    184 O25         7.3880    4.3030   -3.0670 oh        1 MOL     -0.686498
    185 H90         7.2580    3.3830   -2.8200 ho        1 MOL      0.334230
    186 H91         7.2510    4.3130   -4.0140 ho        1 MOL      0.334230
    187 O26         3.9390    4.5940   -3.1820 oh        1 MOL     -0.686498
    188 H92         4.1560    5.5070   -3.3740 ho        1 MOL      0.334230
    189 H93         2.9770    4.5550   -3.2370 ho        1 MOL      0.334230
@<TRIPOS>BOND
     1    1    2 1   
     2    1    4 1   
     3    1    5 1   
     4    1    6 1   
     5    2    3 2   
     6    2    7 1   
     7    7    8 1   
     8    7   15 1   
     9    8    9 1   
    10    8   11 1   
    11    8   16 1   
    12    9   10 2   
    13    9   19 1   
    14   11   12 1   
    15   11   17 1   
    16   11   18 1   
    17   12   13 1   
    18   12   14 1   
    19   19   20 1   
    20   19   28 1   
    21   20   21 1   
    22   20   23 1   
    23   20   29 1   
    24   21   22 2   
    25   21   41 1   
    26   23   24 1   
    27   23   30 1   
    28   23   31 1   
    29   24   25 1   
    30   24   32 1   
    31   24   33 1   
    32   25   26 1   
    33   25   34 1   
    34   25   35 1   
    35   26   27 1   
    36   26   36 1   
    37   26   37 1   
    38   27   38 1   
    39   27   39 1   
    40   27   40 1   
    41   41   42 1   
    42   41   49 1   
    43   42   43 1   
    44   42   45 1   
    45   42   50 1   
    46   43   44 2   
    47   43   53 1   
    48   45   46 1   
    49   45   51 1   
    50   45   52 1   
    51   46   47 1   
    52   46   48 1   
    53   53   54 1   
    54   53   57 1   
    55   54   55 1   
    56   54   58 1   
    57   54   59 1   
    58   55   56 2   
    59   55   60 1   
    60   60   61 1   
    61   60   68 1   
    62   61   62 1   
    63   61   64 1   
    64   61   69 1   
    65   62   63 2   
    66   62   72 1   
    67   64   65 1   
    68   64   70 1   
    69   64   71 1   
    70   65   66 1   
    71   65   67 1   
    72   72   73 1   
    73   72   76 1   
    74   73   74 1   
    75   73   77 1   
    76   73   78 1   
    77   74   75 2   
    78   74   79 1   
    79   79   80 1   
    80   79   86 1   
    81   80   81 1   
    82   80   83 1   
    83   80   87 1   
    84   81   82 2   
    85   81   93 1   
    86   83   84 1   
    87   83   85 1   
    88   83   88 1   
    89   84   90 1   
    90   84   91 1   
    91   84   92 1   
    92   85   89 1   
    93   93   94 1   
    94   93  101 1   
    95   94   95 1   
    96   94   97 1   
    97   94  102 1   
    98   95   96 2   
    99   95  112 1   
   100   97   98 1   
   101   97   99 1   
   102   97  103 1   
   103   98  100 1   
   104   98  104 1   
   105   98  105 1   
   106   99  106 1   
   107   99  107 1   
   108   99  108 1   
   109  100  109 1   
   110  100  110 1   
   111  100  111 1   
   112  112  113 1   
   113  112  119 1   
   114  113  114 1   
   115  113  116 1   
   116  113  120 1   
   117  114  115 2   
   118  114  126 1   
   119  116  117 1   
   120  116  118 1   
   121  116  121 1   
   122  117  123 1   
   123  117  124 1   
   124  117  125 1   
   125  118  122 1   
   126  126  127 1   
   127  126  133 1   
   128  127  128 1   
   129  127  130 1   
   130  127  134 1   
   131  128  129 2   
   132  128  140 1   
   133  130  131 1   
   134  130  132 1   
   135  130  135 1   
   136  131  137 1   
   137  131  138 1   
   138  131  139 1   
   139  132  136 1   
   140  140  141 1   
   141  140  149 1   
   142  141  142 1   
   143  141  144 1   
   144  141  150 1   
   145  142  143 2   
   146  142  162 1   
   147  144  145 1   
   148  144  151 1   
   149  144  152 1   
   150  145  146 1   
   151  145  153 1   
   152  145  154 1   
   153  146  147 1   
   154  146  155 1   
   155  146  156 1   
   156  147  148 1   
   157  147  157 1   
   158  147  158 1   
   159  148  159 1   
   160  148  160 1   
   161  148  161 1   
   162  162  163 1   
   163  162  171 1   
   164  163  164 1   
   165  163  166 1   
   166  163  172 1   
   167  164  165 2   
   168  164  177 1   
   169  166  167 1   
   170  166  173 1   
   171  166  174 1   
   172  167  168 1   
   173  167  175 1   
   174  167  176 1   
   175  168  169 1   
   176  168  170 1   
   177  177  178 1   
   178  177  182 1   
   179  178  179 1   
   180  178  180 1   
   181  178  181 1   
   182  184  185 1   
   183  184  186 1   
   184  187  188 1   
   185  187  189 1   
@<TRIPOS>SUBSTRUCTURE
     1 MOL         1 TEMP              0 ****  ****    0 ROOT
