@<TRIPOS>MOLECULE
MOL
  195   189     1     0     0
SMALL
resp


@<TRIPOS>ATOM
      1 C1          8.3260    0.8670    3.8550 c3        1 MOL     -0.324834
      2 C2          7.1980    0.7960    2.7910 c         1 MOL      0.783296
      3 O1          6.6130    1.8500    2.4200 o         1 MOL     -0.635061
      4 H1          7.8930    0.7600    4.8490 hc        1 MOL      0.079432
      5 H2          9.0410    0.0620    3.6820 hc        1 MOL      0.079432
      6 H3          8.8350    1.8270    3.7810 hc        1 MOL      0.079432
      7 N1          6.8510   -0.3790    2.2590 n         1 MOL     -0.632497
      8 C3          5.8350   -0.6440    1.2700 c3        1 MOL      0.451237
      9 C4          4.3690   -0.1980    1.5000 c         1 MOL      0.124935
     10 O2          3.5230   -0.6590    0.7330 o         1 MOL     -0.379279
     11 C5          5.9830   -2.1530    0.8190 c3        1 MOL     -0.235629
     12 C6          7.3760   -2.7020    0.6480 c         1 MOL      0.708241
     13 O3          7.6910   -3.3610   -0.3720 o         1 MOL     -0.691635
     14 O4          8.1460   -2.6400    1.6180 o         1 MOL     -0.691635
     15 H4          7.3500   -1.2200    2.5360 hn        1 MOL      0.269382
     16 H5          6.0140   -0.0100    0.4020 h1        1 MOL      0.026652
     17 H6          5.4470   -2.3590   -0.0980 hc        1 MOL      0.015690
     18 H7          5.5460   -2.6860    1.6560 hc        1 MOL      0.015690
     19 N2          4.0090    0.4200    2.6440 n         1 MOL     -0.334685
     20 C7          2.6040    0.6020    3.1370 c3        1 MOL      0.265410
     21 C8          2.1530    2.0290    3.1070 c         1 MOL      0.297473
     22 O5          2.9320    2.9300    3.5250 o         1 MOL     -0.495369
     23 C9          2.7070   -0.0160    4.5350 c3        1 MOL     -0.636319
     24 C10         2.8420   -1.5230    4.5370 c3        1 MOL      0.158780
     25 C11         2.0510   -2.0930    5.7230 c3        1 MOL      0.008614
     26 C12         1.9950   -3.6080    5.6510 c3        1 MOL     -0.096681
     27 N3          1.3050   -4.0850    4.4170 n4        1 MOL     -0.227826
     28 H8          4.7180    0.7520    3.2810 hn        1 MOL      0.250141
     29 H9          1.9090    0.1010    2.4680 h1        1 MOL      0.096272
     30 H10         1.8880    0.4050    5.1140 hc        1 MOL      0.198427
     31 H11         3.5990    0.4370    4.9660 hc        1 MOL      0.198427
     32 H12         3.8600   -1.9060    4.5770 hc        1 MOL      0.021272
     33 H13         2.5140   -2.0160    3.6250 hc        1 MOL      0.021272
     34 H14         1.0700   -1.6360    5.7870 hc        1 MOL      0.054990
     35 H15         2.5400   -1.7370    6.6330 hc        1 MOL      0.054990
     36 H16         1.5060   -4.0270    6.5240 hx        1 MOL      0.088004
     37 H17         3.0520   -3.8690    5.5740 hx        1 MOL      0.088004
     38 H18         0.3610   -3.7550    4.4290 hn        1 MOL      0.296921
     39 H19         1.7960   -3.8230    3.5640 hn        1 MOL      0.296921
     40 H20         1.1190   -5.0770    4.3740 hn        1 MOL      0.296921
     41 N4          1.0570    2.5210    2.5310 n         1 MOL     -0.052706
     42 C13        -0.0760    1.8810    1.9830 c3        1 MOL     -0.434521
     43 C14        -0.9120    1.0070    2.8890 c         1 MOL      0.724097
     44 O6         -0.3900    0.4200    3.7870 o         1 MOL     -0.588947
     45 C15         0.1440    1.3320    0.5060 c3        1 MOL     -0.426099
     46 C16         0.1420    2.3760   -0.5740 c         1 MOL      0.656281
     47 O7         -0.4860    3.4040   -0.3240 o         1 MOL     -0.681989
     48 O8          0.7060    2.0920   -1.6400 o         1 MOL     -0.681989
     49 H21         0.9930    3.5070    2.3540 hn        1 MOL      0.146961
     50 H22        -0.7110    2.7650    1.9080 h1        1 MOL      0.154740
     51 H23        -0.7060    0.6600    0.3280 hc        1 MOL      0.206848
     52 H24         1.0410    0.7150    0.4310 hc        1 MOL      0.206848
     53 N5         -2.2750    0.9270    2.6640 n         1 MOL     -0.614793
     54 C17        -3.1690    1.3870    1.5540 c3        1 MOL      0.356223
     55 C18        -4.6810    1.1050    1.9720 c         1 MOL      0.271977
     56 O9         -4.9280    0.2710    2.8220 o         1 MOL     -0.456531
     57 H25        -2.8010    0.4170    3.3620 hn        1 MOL      0.295484
     58 H26        -2.9340    0.7970    0.6670 h1        1 MOL      0.004723
     59 H27        -3.0220    2.4410    1.3640 h1        1 MOL      0.004723
     60 N6         -5.6450    1.7860    1.3710 n         1 MOL     -0.213535
     61 C19        -5.5090    2.5400    0.1300 c3        1 MOL      0.028334
     62 C20        -6.7380    2.2900   -0.7750 c         1 MOL      0.699321
     63 O10        -7.6490    1.6910   -0.2530 o         1 MOL     -0.499998
     64 C21        -5.2840    4.0170    0.3490 c3        1 MOL     -0.261439
     65 C22        -6.2370    4.6250    1.4250 c         1 MOL      0.619066
     66 O11        -7.3790    5.0390    1.1370 o         1 MOL     -0.663807
     67 O12        -5.9150    4.6430    2.6690 o         1 MOL     -0.663807
     68 H28        -6.6060    1.5900    1.6280 hn        1 MOL      0.267564
     69 H29        -4.6210    2.1700   -0.3900 h1        1 MOL      0.008313
     70 H30        -5.5830    4.4710   -0.5900 hc        1 MOL      0.018138
     71 H31        -4.2540    4.2890    0.5610 hc        1 MOL      0.018138
     72 N7         -6.8520    2.6220   -2.0380 n         1 MOL     -0.581940
     73 C23        -7.8140    2.1020   -2.9720 c3        1 MOL      0.176349
     74 C24        -7.9570    0.5260   -3.0560 c         1 MOL      0.360098
     75 O13        -9.0060   -0.0260   -3.3560 o         1 MOL     -0.522378
     76 H32        -5.9660    2.9290   -2.4210 hn        1 MOL      0.310700
     77 H33        -7.4790    2.3880   -3.9710 h1        1 MOL      0.043212
     78 H34        -8.7990    2.5740   -2.9580 h1        1 MOL      0.043212
     79 N8         -6.9440   -0.1490   -2.5830 n         1 MOL     -0.225018
     80 C25        -6.8680   -1.5930   -2.1910 c3        1 MOL      0.044088
     81 C26        -5.9640   -1.6090   -0.9150 c         1 MOL      0.386285
     82 O14        -5.0240   -0.8190   -0.8050 o         1 MOL     -0.494529
     83 C27        -6.1090   -2.4000   -3.1860 c3        1 MOL      0.264498
     84 C28        -6.7370   -2.5050   -4.5270 c3        1 MOL     -0.601231
     85 O15        -6.0730   -3.6710   -2.5960 oh        1 MOL     -0.554205
     86 H35        -6.1040    0.3650   -2.3660 hn        1 MOL      0.139697
     87 H36        -7.8420   -2.0050   -1.9060 h1        1 MOL      0.110073
     88 H37        -5.0710   -2.0490   -3.2230 h1        1 MOL      0.097540
     89 H38        -6.8650   -4.1960   -2.6690 ho        1 MOL      0.368223
     90 H39        -5.8960   -2.7660   -5.1630 hc        1 MOL      0.168698
     91 H40        -7.5780   -3.1850   -4.3770 hc        1 MOL      0.168698
     92 H41        -7.0190   -1.5140   -4.8820 hc        1 MOL      0.168698
     93 N9         -6.1390   -2.5360    0.0480 n         1 MOL     -0.442674
     94 C29        -5.1990   -2.7400    1.2240 c3        1 MOL     -0.100185
     95 C30        -3.8180   -3.2750    0.9970 c         1 MOL      0.637375
     96 O16        -2.9520   -3.2090    1.8050 o         1 MOL     -0.625574
     97 C31        -5.9970   -3.3330    2.4030 c3        1 MOL      0.179378
     98 C32        -5.2400   -3.0930    3.7450 c3        1 MOL      0.220653
     99 C33        -6.3050   -4.8640    2.2220 c3        1 MOL     -0.326501
    100 C34        -6.2610   -3.0070    4.8180 c3        1 MOL     -0.324616
    101 H42        -6.9700   -3.1070   -0.0540 hn        1 MOL      0.270896
    102 H43        -4.9690   -1.7070    1.4870 h1        1 MOL      0.130093
    103 H44        -6.9290   -2.7610    2.4260 hc        1 MOL      0.017814
    104 H45        -4.6370   -2.1830    3.7070 hc        1 MOL     -0.029970
    105 H46        -4.6170   -3.9620    3.9630 hc        1 MOL     -0.029970
    106 H47        -6.7140   -5.2680    3.1550 hc        1 MOL      0.070305
    107 H48        -7.0330   -4.9650    1.4080 hc        1 MOL      0.070305
    108 H49        -5.4010   -5.3810    1.8990 hc        1 MOL      0.070305
    109 H50        -7.0080   -2.2170    4.7170 hc        1 MOL      0.068893
    110 H51        -6.6000   -4.0290    5.0050 hc        1 MOL      0.068893
    111 H52        -5.7180   -2.7200    5.7230 hc        1 MOL      0.068893
    112 N10        -3.4880   -3.8550   -0.1210 n         1 MOL     -0.362211
    113 C35        -2.1350   -4.4630   -0.5000 c3        1 MOL     -0.179391
    114 C36        -0.9390   -3.4580   -0.3310 c         1 MOL      0.761852
    115 O17        -0.9910   -2.2600   -0.8390 o         1 MOL     -0.540154
    116 C37        -2.1520   -5.2040   -1.8490 c3        1 MOL      0.347528
    117 C38        -3.3520   -6.1220   -1.9620 c3        1 MOL     -0.160703
    118 O18        -0.9870   -5.9830   -2.0120 oh        1 MOL     -0.641709
    119 H53        -4.2340   -3.9690   -0.7820 hn        1 MOL      0.242880
    120 H54        -2.0060   -5.1810    0.3060 h1        1 MOL      0.108990
    121 H55        -2.2650   -4.5560   -2.7130 h1        1 MOL      0.038460
    122 H56        -0.9020   -6.1930   -2.9410 ho        1 MOL      0.412838
    123 H57        -3.1470   -6.7450   -2.8380 hc        1 MOL      0.030353
    124 H58        -3.6290   -6.7690   -1.1270 hc        1 MOL      0.030353
    125 H59        -4.2200   -5.5170   -2.2180 hc        1 MOL      0.030353
    126 N11         0.2040   -3.9870    0.0860 n         1 MOL     -0.698449
    127 C39         1.5260   -3.3780   -0.1340 c3        1 MOL      0.028403
    128 C40         1.7720   -2.9150   -1.5810 c         1 MOL      0.587769
    129 O19         1.2380   -3.4740   -2.5060 o         1 MOL     -0.526336
    130 C41         2.7100   -4.1760    0.3230 c3        1 MOL      0.307371
    131 C42         2.7920   -5.4640   -0.5050 c3        1 MOL     -0.536895
    132 O20         2.7260   -4.5020    1.7150 oh        1 MOL     -0.629091
    133 H60         0.1840   -4.9930    0.1370 hn        1 MOL      0.314039
    134 H61         1.4680   -2.4600    0.4580 h1        1 MOL      0.104439
    135 H62         3.6500   -3.6850    0.0510 h1        1 MOL      0.122745
    136 H63         2.3370   -5.3750    1.7740 ho        1 MOL      0.373996
    137 H64         2.8540   -5.2240   -1.5600 hc        1 MOL      0.144432
    138 H65         3.6710   -5.9910   -0.1250 hc        1 MOL      0.144432
    139 H66         1.8860   -6.0610   -0.4050 hc        1 MOL      0.144432
    140 N12         2.5740   -1.8090   -1.8150 n         1 MOL     -0.316212
    141 C43         2.7950   -1.0760   -3.1450 c3        1 MOL     -0.120450
    142 C44         3.3710    0.3480   -3.0550 c         1 MOL      0.706388
    143 O21         3.7070    0.8870   -4.1360 o         1 MOL     -0.613127
    144 C45         3.6660   -1.9860   -4.0880 c3        1 MOL     -0.206258
    145 C46         5.2010   -1.8360   -3.6900 c3        1 MOL     -0.129980
    146 C47         6.0730   -2.7160   -4.5820 c3        1 MOL     -0.038850
    147 C48         5.6970   -4.1920   -4.5740 c3        1 MOL      0.103106
    148 N13         6.3630   -4.7870   -5.7600 n4        1 MOL     -0.416604
    149 H67         3.0570   -1.4450   -1.0040 hn        1 MOL      0.087623
    150 H68         1.8960   -0.8760   -3.7350 h1        1 MOL      0.129596
    151 H69         3.6700   -1.6240   -5.1150 hc        1 MOL      0.078209
    152 H70         3.2200   -2.9770   -4.0840 hc        1 MOL      0.078209
    153 H71         5.3730   -2.1990   -2.6740 hc        1 MOL      0.088161
    154 H72         5.5450   -0.8010   -3.8130 hc        1 MOL      0.088161
    155 H73         7.1300   -2.5780   -4.3320 hc        1 MOL      0.053825
    156 H74         5.9470   -2.2800   -5.5790 hc        1 MOL      0.053825
    157 H75         4.6300   -4.3730   -4.7150 hx        1 MOL      0.071072
    158 H76         6.0650   -4.6740   -3.6650 hx        1 MOL      0.071072
    159 H77         7.3690   -4.7350   -5.7370 hn        1 MOL      0.323340
    160 H78         6.1900   -5.7810   -5.7140 hn        1 MOL      0.323340
    161 H79         5.9620   -4.5090   -6.6480 hn        1 MOL      0.323340
    162 N14         3.4770    0.8860   -1.8140 n         1 MOL     -0.117320
    163 C49         3.9820    2.3080   -1.5990 c3        1 MOL     -0.830730
    164 C50         5.5000    2.4880   -1.8790 c         1 MOL      0.554808
    165 O22         6.2550    1.5890   -1.5150 o         1 MOL     -0.517673
    166 C51         3.7280    2.6770   -0.1550 c3        1 MOL      0.631676
    167 C52         4.0990    4.0960    0.3140 c3        1 MOL     -0.194705
    168 C53         3.5690    5.2450   -0.5210 c         1 MOL      0.615345
    169 O23         4.3430    5.7690   -1.3210 o         1 MOL     -0.730830
    170 O24         2.4140    5.5800   -0.3370 o         1 MOL     -0.730830
    171 H80         2.9760    0.3580   -1.1170 hn        1 MOL      0.216411
    172 H81         3.3320    2.9570   -2.1810 h1        1 MOL      0.226076
    173 H82         4.4330    2.0840    0.4340 hc        1 MOL     -0.099479
    174 H83         2.7020    2.4200    0.1300 hc        1 MOL     -0.099479
    175 H84         5.1790    4.1530    0.4250 hc        1 MOL      0.065969
    176 H85         3.7010    4.2100    1.3190 hc        1 MOL      0.065969
    177 N15         5.8150    3.4800   -2.6750 n         1 MOL     -0.164176
    178 C54         7.1970    3.7780   -3.0440 c3        1 MOL     -0.062157
    179 H86         7.3090    3.6970   -4.1250 h1        1 MOL      0.052101
    180 H87         7.4480    4.7900   -2.7280 h1        1 MOL      0.052101
    181 H88         7.8640    3.0670   -2.5570 h1        1 MOL      0.052101
    182 H89         5.1190    4.1050   -3.0630 hn        1 MOL      0.285613
    183 Ca1        -0.0270    6.0270   -0.3760 Ca        1 MOL      1.681519
    184 O25         0.9510    5.1470   -2.7210 oh        1 MOL     -0.826310
    185 H90         0.9030    4.2920   -3.1540 ho        1 MOL      0.419614
    186 H91         1.8810    5.3670   -2.7340 ho        1 MOL      0.419614
    187 O26        -2.1570    5.4840    1.3370 oh        1 MOL     -0.826310
    188 H92        -2.7940    4.9440    0.8880 ho        1 MOL      0.419614
    189 H93        -2.1780    5.1780    2.2430 ho        1 MOL      0.419614
    190 O27        -2.2750    6.8730   -1.4010 oh        1 MOL     -0.826310
    191 H94        -2.3030    7.8130   -1.5950 ho        1 MOL      0.419614
    192 H95        -3.1780    6.5730   -1.4980 ho        1 MOL      0.419614
    193 O28         0.6160    8.1370   -2.1750 oh        1 MOL     -0.826310
    194 H96         0.2240    8.8460   -1.6710 ho        1 MOL      0.419614
    195 H97         1.5190    8.4170   -2.3310 ho        1 MOL      0.419614
@<TRIPOS>BOND
     1    1    2 1   
     2    1    4 1   
     3    1    5 1   
     4    1    6 1   
     5    2    3 2   
     6    2    7 1   
     7    7    8 1   
     8    7   15 1   
     9    8    9 1   
    10    8   11 1   
    11    8   16 1   
    12    9   10 2   
    13    9   19 1   
    14   11   12 1   
    15   11   17 1   
    16   11   18 1   
    17   12   13 1   
    18   12   14 1   
    19   19   20 1   
    20   19   28 1   
    21   20   21 1   
    22   20   23 1   
    23   20   29 1   
    24   21   22 2   
    25   21   41 1   
    26   23   24 1   
    27   23   30 1   
    28   23   31 1   
    29   24   25 1   
    30   24   32 1   
    31   24   33 1   
    32   25   26 1   
    33   25   34 1   
    34   25   35 1   
    35   26   27 1   
    36   26   36 1   
    37   26   37 1   
    38   27   38 1   
    39   27   39 1   
    40   27   40 1   
    41   41   42 1   
    42   41   49 1   
    43   42   43 1   
    44   42   45 1   
    45   42   50 1   
    46   43   44 2   
    47   43   53 1   
    48   45   46 1   
    49   45   51 1   
    50   45   52 1   
    51   46   47 1   
    52   46   48 1   
    53   53   54 1   
    54   53   57 1   
    55   54   55 1   
    56   54   58 1   
    57   54   59 1   
    58   55   56 2   
    59   55   60 1   
    60   60   61 1   
    61   60   68 1   
    62   61   62 1   
    63   61   64 1   
    64   61   69 1   
    65   62   63 2   
    66   62   72 1   
    67   64   65 1   
    68   64   70 1   
    69   64   71 1   
    70   65   66 1   
    71   65   67 1   
    72   72   73 1   
    73   72   76 1   
    74   73   74 1   
    75   73   77 1   
    76   73   78 1   
    77   74   75 2   
    78   74   79 1   
    79   79   80 1   
    80   79   86 1   
    81   80   81 1   
    82   80   83 1   
    83   80   87 1   
    84   81   82 2   
    85   81   93 1   
    86   83   84 1   
    87   83   85 1   
    88   83   88 1   
    89   84   90 1   
    90   84   91 1   
    91   84   92 1   
    92   85   89 1   
    93   93   94 1   
    94   93  101 1   
    95   94   95 1   
    96   94   97 1   
    97   94  102 1   
    98   95   96 2   
    99   95  112 1   
   100   97   98 1   
   101   97   99 1   
   102   97  103 1   
   103   98  100 1   
   104   98  104 1   
   105   98  105 1   
   106   99  106 1   
   107   99  107 1   
   108   99  108 1   
   109  100  109 1   
   110  100  110 1   
   111  100  111 1   
   112  112  113 1   
   113  112  119 1   
   114  113  114 1   
   115  113  116 1   
   116  113  120 1   
   117  114  115 2   
   118  114  126 1   
   119  116  117 1   
   120  116  118 1   
   121  116  121 1   
   122  117  123 1   
   123  117  124 1   
   124  117  125 1   
   125  118  122 1   
   126  126  127 1   
   127  126  133 1   
   128  127  128 1   
   129  127  130 1   
   130  127  134 1   
   131  128  129 2   
   132  128  140 1   
   133  130  131 1   
   134  130  132 1   
   135  130  135 1   
   136  131  137 1   
   137  131  138 1   
   138  131  139 1   
   139  132  136 1   
   140  140  141 1   
   141  140  149 1   
   142  141  142 1   
   143  141  144 1   
   144  141  150 1   
   145  142  143 2   
   146  142  162 1   
   147  144  145 1   
   148  144  151 1   
   149  144  152 1   
   150  145  146 1   
   151  145  153 1   
   152  145  154 1   
   153  146  147 1   
   154  146  155 1   
   155  146  156 1   
   156  147  148 1   
   157  147  157 1   
   158  147  158 1   
   159  148  159 1   
   160  148  160 1   
   161  148  161 1   
   162  162  163 1   
   163  162  171 1   
   164  163  164 1   
   165  163  166 1   
   166  163  172 1   
   167  164  165 2   
   168  164  177 1   
   169  166  167 1   
   170  166  173 1   
   171  166  174 1   
   172  167  168 1   
   173  167  175 1   
   174  167  176 1   
   175  168  169 1   
   176  168  170 1   
   177  177  178 1   
   178  177  182 1   
   179  178  179 1   
   180  178  180 1   
   181  178  181 1   
   182  184  185 1   
   183  184  186 1   
   184  187  188 1   
   185  187  189 1   
   186  190  191 1   
   187  190  192 1   
   188  193  194 1   
   189  193  195 1   
@<TRIPOS>SUBSTRUCTURE
     1 MOL         1 TEMP              0 ****  ****    0 ROOT
