@<TRIPOS>MOLECULE
MOL
  189   185     1     0     0
SMALL
resp


@<TRIPOS>ATOM
      1 C1          4.5680    3.4440   -3.7350 c3        1 MOL     -0.553773
      2 C2          5.4470    2.8310   -2.6150 c         1 MOL      0.886384
      3 O1          5.1110    2.6310   -1.4460 o         1 MOL     -0.785070
      4 H1          3.6870    2.8210   -3.8870 hc        1 MOL      0.143618
      5 H2          4.2570    4.4480   -3.4450 hc        1 MOL      0.143618
      6 H3          5.1410    3.4930   -4.6610 hc        1 MOL      0.143618
      7 N1          6.6760    2.5190   -2.9900 n         1 MOL     -0.575401
      8 C3          7.5880    1.6420   -2.2700 c3        1 MOL      0.142735
      9 C4          6.8290    0.4420   -1.7970 c         1 MOL      0.463493
     10 O2          6.4260    0.3330   -0.5880 o         1 MOL     -0.554338
     11 C5          8.4800    2.2590   -1.1640 c3        1 MOL     -0.085230
     12 C6          7.6350    3.3720   -0.3540 c         1 MOL      0.759000
     13 O3          7.0500    2.9960    0.7180 o         1 MOL     -0.728907
     14 O4          7.7350    4.5340   -0.6910 o         1 MOL     -0.728907
     15 H4          6.7990    2.5620   -3.9930 hn        1 MOL      0.280283
     16 H5          8.3330    1.2290   -2.9400 h1        1 MOL      0.028718
     17 H6          9.3150    2.7960   -1.6190 hc        1 MOL      0.015077
     18 H7          8.9480    1.4870   -0.5590 hc        1 MOL      0.015077
     19 N2          6.5650   -0.4480   -2.7730 n         1 MOL     -0.481267
     20 C7          5.8630   -1.7950   -2.4640 c3        1 MOL      0.277963
     21 C8          6.6500   -2.7440   -1.5210 c         1 MOL      0.188652
     22 O5          7.1770   -3.7610   -1.9470 o         1 MOL     -0.552209
     23 C9          4.3110   -1.6160   -2.1310 c3        1 MOL      0.079428
     24 C10         3.6780   -3.0030   -2.1630 c3        1 MOL      0.117137
     25 C11         3.5720   -0.5090   -2.9250 c3        1 MOL     -0.479963
     26 C12         3.2510   -3.3630   -3.6090 c3        1 MOL     -0.122734
     27 H8          6.8860   -0.1890   -3.6910 hn        1 MOL      0.274418
     28 H9          5.8780   -2.3310   -3.4090 h1        1 MOL     -0.000039
     29 H10         4.3670   -1.1820   -1.1390 hc        1 MOL     -0.029141
     30 H11         2.7610   -3.0530   -1.5880 hc        1 MOL     -0.005263
     31 H12         4.3230   -3.7990   -1.7710 hc        1 MOL     -0.005263
     32 H13         2.4880   -0.5850   -2.8000 hc        1 MOL      0.112143
     33 H14         3.8480    0.4720   -2.5360 hc        1 MOL      0.112143
     34 H15         3.8390   -0.5560   -3.9760 hc        1 MOL      0.112143
     35 H16         3.0960   -4.4350   -3.7150 hc        1 MOL      0.008956
     36 H17         2.2920   -2.9690   -3.9390 hc        1 MOL      0.008956
     37 H18         4.0420   -3.2600   -4.3450 hc        1 MOL      0.008956
     38 N3          6.6670   -2.4230   -0.2550 n         1 MOL      0.309477
     39 C13         7.3730   -3.3090    0.6790 c3        1 MOL      0.115663
     40 C14         6.5860   -4.5450    1.0470 c         1 MOL      0.476583
     41 O6          7.1500   -5.6350    1.0820 o         1 MOL     -0.574062
     42 C15         8.0280   -2.4600    1.7760 c3        1 MOL     -0.176262
     43 C16         8.9150   -1.3550    1.2530 c         1 MOL      0.710676
     44 O7          8.8440   -0.2200    1.8440 o         1 MOL     -0.703840
     45 O8          9.6000   -1.6500    0.2450 o         1 MOL     -0.703840
     46 H19         6.3270   -1.4970   -0.0170 hn        1 MOL     -0.014606
     47 H20         8.2680   -3.6360    0.1480 h1        1 MOL      0.024749
     48 H21         8.6790   -3.1230    2.3440 hc        1 MOL      0.012475
     49 H22         7.3550   -1.9880    2.4830 hc        1 MOL      0.012475
     50 N4          5.2830   -4.5060    1.4050 n         1 MOL     -0.531784
     51 C17         4.4320   -3.3310    1.7920 c3        1 MOL      0.111100
     52 C18         3.2380   -3.8840    2.6860 c         1 MOL      0.586850
     53 O9          3.1090   -5.0930    2.8890 o         1 MOL     -0.578068
     54 H23         4.8660   -5.4290    1.3790 hn        1 MOL      0.305346
     55 H24         4.0240   -2.9930    0.8490 h1        1 MOL      0.002767
     56 H25         4.9710   -2.5130    2.2800 h1        1 MOL      0.002767
     57 N5          2.2450   -3.0720    3.0870 n         1 MOL     -0.540623
     58 C19         2.0730   -1.6690    3.1780 c3        1 MOL      0.503648
     59 C20         2.3590   -0.9160    1.8990 c         1 MOL      0.044841
     60 O10         3.4700   -0.4590    1.5960 o         1 MOL     -0.370131
     61 C21         2.8360   -1.2010    4.3990 c3        1 MOL     -0.601813
     62 C22         2.6140    0.2650    4.8090 c         1 MOL      0.781089
     63 O11         3.2490    0.7730    5.7630 o         1 MOL     -0.703209
     64 O12         1.7340    0.9980    4.2990 o         1 MOL     -0.703209
     65 H26         1.4940   -3.4660    3.6450 hn        1 MOL      0.272584
     66 H27         1.0390   -1.4270    3.4420 h1        1 MOL      0.030670
     67 H28         3.9080   -1.3360    4.2510 hc        1 MOL      0.130116
     68 H29         2.6050   -1.7870    5.2870 hc        1 MOL      0.130116
     69 N6          1.2770   -0.6300    1.1280 n         1 MOL     -0.134055
     70 C23        -0.0810   -1.0830    1.2370 c3        1 MOL      0.053744
     71 C24        -0.4350   -2.5070    0.8280 c         1 MOL      0.545226
     72 O13         0.3950   -3.2160    0.3110 o         1 MOL     -0.488001
     73 H30         1.4930    0.0320    0.4040 hn        1 MOL      0.173918
     74 H31        -0.6080   -0.4750    0.5030 h1        1 MOL     -0.011480
     75 H32        -0.4640   -0.9700    2.2550 h1        1 MOL     -0.011480
     76 N7         -1.7130   -2.9170    0.9120 n         1 MOL     -0.468502
     77 C25        -2.2070   -4.2860    0.5120 c3        1 MOL      0.037639
     78 C26        -2.8430   -4.3800   -0.8520 c         1 MOL      0.536758
     79 O14        -3.1180   -5.4620   -1.3480 o         1 MOL     -0.541533
     80 C27        -2.8860   -5.0100    1.6280 c3        1 MOL     -0.055585
     81 C28        -4.1140   -4.3290    2.1280 c3        1 MOL     -0.233489
     82 C29        -5.3500   -4.3960    1.2130 c         1 MOL      0.452620
     83 N8         -6.2670   -5.3570    1.2630 n         1 MOL     -0.689745
     84 O15        -5.6200   -3.5280    0.3440 o         1 MOL     -0.424943
     85 H33        -2.4440   -2.3070    1.2580 hn        1 MOL      0.296495
     86 H34        -1.3060   -4.8980    0.4610 h1        1 MOL      0.071231
     87 H35        -2.2360   -4.9730    2.5070 hc        1 MOL      0.077244
     88 H36        -3.0730   -6.0240    1.2900 hc        1 MOL      0.077244
     89 H37        -3.8900   -3.2730    2.2390 hc        1 MOL      0.081200
     90 H38        -4.3830   -4.8220    3.0720 hc        1 MOL      0.081200
     91 H39        -6.2160   -6.1370    1.8980 hn        1 MOL      0.349567
     92 H40        -6.9420   -5.3470    0.5220 hn        1 MOL      0.349567
     93 N9         -3.0910   -3.1770   -1.4490 n         1 MOL     -0.328489
     94 C30        -3.3820   -2.9140   -2.8980 c3        1 MOL      0.097594
     95 C31        -4.7320   -2.2350   -3.1660 c         1 MOL      0.224750
     96 O16        -4.9650   -1.8110   -4.3160 o         1 MOL     -0.512456
     97 C32        -2.1980   -2.1130   -3.5600 c3        1 MOL      0.153721
     98 C33        -0.8550   -2.8540   -3.3170 c3        1 MOL     -0.179268
     99 C34        -2.0220   -0.7110   -3.0410 c3        1 MOL     -0.179268
    100 H41        -2.8120   -2.3840   -0.8920 hn        1 MOL      0.162706
    101 H42        -3.4030   -3.8610   -3.4430 h1        1 MOL      0.078976
    102 H43        -2.5040   -2.0860   -4.6040 hc        1 MOL      0.008268
    103 H44        -0.0630   -2.2450   -3.7440 hc        1 MOL      0.044585
    104 H45        -0.6840   -3.2370   -2.3160 hc        1 MOL      0.044585
    105 H46        -0.9890   -3.7390   -3.9510 hc        1 MOL      0.044585
    106 H47        -2.9450   -0.1880   -3.2980 hc        1 MOL      0.044585
    107 H48        -2.0170   -0.6620   -1.9570 hc        1 MOL      0.044585
    108 H49        -1.1600   -0.1710   -3.4370 hc        1 MOL      0.044585
    109 N10        -5.6100   -2.0260   -2.1580 n         1 MOL      0.017635
    110 C35        -6.9410   -1.3490   -2.2960 c3        1 MOL     -0.021442
    111 C36        -7.0780    0.0390   -1.6480 c         1 MOL      0.688302
    112 O17        -8.1200    0.6400   -1.9470 o         1 MOL     -0.554344
    113 C37        -7.9960   -2.3000   -1.6870 c3        1 MOL     -0.250730
    114 C38        -8.0240   -3.7310   -2.0460 c         1 MOL      0.641641
    115 N11        -7.9050   -4.2090   -3.2140 n         1 MOL     -0.736698
    116 O18        -8.1690   -4.6210   -1.2180 o         1 MOL     -0.585436
    117 H50        -5.4470   -2.4750   -1.2590 hn        1 MOL      0.074560
    118 H51        -7.1640   -1.1080   -3.3340 h1        1 MOL      0.048444
    119 H52        -8.9860   -1.8860   -1.8430 hc        1 MOL      0.084795
    120 H53        -7.7250   -2.3340   -0.6310 hc        1 MOL      0.084795
    121 H54        -7.6730   -3.5980   -3.9910 hn        1 MOL      0.355740
    122 H55        -8.0820   -5.1950   -3.2910 hn        1 MOL      0.355740
    123 N12        -6.0170    0.4800   -0.8950 n         1 MOL     -0.683993
    124 C39        -6.0360    1.6820   -0.0000 c3        1 MOL      0.429789
    125 C40        -4.7130    2.4960   -0.0220 c         1 MOL      0.345788
    126 O19        -3.6100    1.9780   -0.0500 o         1 MOL     -0.452801
    127 C41        -6.2810    1.2310    1.4460 c3        1 MOL      0.030984
    128 C42        -7.6260    0.6060    1.6950 ca        1 MOL     -0.160484
    129 C43        -7.7260   -0.7830    1.7200 ca        1 MOL     -0.001379
    130 C44        -8.7910    1.3950    1.7170 ca        1 MOL     -0.001379
    131 C45        -8.9110   -1.4250    2.0590 ca        1 MOL     -0.338840
    132 C46       -10.0350    0.7550    2.0380 ca        1 MOL     -0.338840
    133 C47       -10.0830   -0.6600    2.2240 ca        1 MOL      0.384980
    134 O20       -11.3010   -1.2260    2.4920 oh        1 MOL     -0.512651
    135 H56        -5.2580   -0.1660   -0.7760 hn        1 MOL      0.258144
    136 H57        -6.8600    2.3380   -0.2740 h1        1 MOL     -0.040442
    137 H58        -6.2020    2.0540    2.1590 hc        1 MOL      0.020512
    138 H59        -5.4920    0.5120    1.6790 hc        1 MOL      0.020512
    139 H60        -6.8130   -1.3100    1.4880 ha        1 MOL      0.108487
    140 H61        -8.7060    2.4620    1.5630 ha        1 MOL      0.108487
    141 H62        -9.0150   -2.4980    2.1490 ha        1 MOL      0.156167
    142 H63       -10.9370    1.3510    1.9400 ha        1 MOL      0.156167
    143 H64       -11.2230   -2.1250    2.8240 ho        1 MOL      0.360550
    144 N13        -4.9060    3.7960    0.2670 n         1 MOL     -0.598398
    145 C48        -3.9110    4.7780    0.7100 c3        1 MOL      0.001967
    146 C49        -2.6350    4.9800   -0.0700 c         1 MOL      0.430035
    147 O21        -1.9540    6.0130    0.1930 o         1 MOL     -0.525092
    148 C50        -3.6520    4.4970    2.1940 c3        1 MOL      0.129582
    149 C51        -4.8840    4.6680    3.0810 c3        1 MOL     -0.252854
    150 C52        -5.0800    6.1190    3.6360 c         1 MOL      0.700132
    151 O22        -4.9640    7.0620    2.7820 o         1 MOL     -0.720066
    152 O23        -5.4480    6.3190    4.8490 o         1 MOL     -0.720066
    153 H65        -5.8450    4.1610    0.1880 hn        1 MOL      0.367208
    154 H66        -4.3650    5.7610    0.6890 h1        1 MOL      0.095096
    155 H67        -2.7630    5.0420    2.5230 hc        1 MOL      0.024013
    156 H68        -3.3970    3.4340    2.3000 hc        1 MOL      0.024013
    157 H69        -4.7170    3.9780    3.9100 hc        1 MOL      0.025188
    158 H70        -5.7830    4.4180    2.5260 hc        1 MOL      0.025188
    159 N14        -2.2430    4.1570   -1.0290 n         1 MOL     -0.101633
    160 C53        -1.0150    4.3350   -1.8040 c3        1 MOL     -0.303066
    161 C54        -1.1820    5.1050   -3.0570 c         1 MOL      0.570011
    162 O24        -0.2360    5.5930   -3.6790 o         1 MOL     -0.559317
    163 C55        -0.4670    2.9710   -2.0930 c3        1 MOL     -0.142634
    164 C56         0.1210    2.2730   -0.8310 c3        1 MOL      0.114108
    165 C57         1.3660    2.8720   -0.2470 c         1 MOL      0.628924
    166 O25         1.4130    4.1270   -0.0960 o         1 MOL     -0.615562
    167 O26         2.3320    2.1200    0.0710 o         1 MOL     -0.615562
    168 H71        -2.7260    3.2780   -1.1330 hn        1 MOL      0.160314
    169 H72        -0.2680    4.9640   -1.3120 h1        1 MOL      0.202929
    170 H73         0.3400    3.0360   -2.8250 hc        1 MOL      0.051738
    171 H74        -1.1790    2.2560   -2.5060 hc        1 MOL      0.051738
    172 H75         0.4700    1.2770   -1.1200 hc        1 MOL     -0.014656
    173 H76        -0.6440    2.2250   -0.0620 hc        1 MOL     -0.014656
    174 N15        -2.3900    5.4380   -3.3350 n         1 MOL     -0.217398
    175 C58        -2.7490    6.0910   -4.5580 c3        1 MOL     -0.280844
    176 H77        -3.8340    6.1750   -4.6200 h1        1 MOL      0.100354
    177 H78        -2.3050    7.0860   -4.5830 h1        1 MOL      0.100354
    178 H79        -2.3820    5.5070   -5.4030 h1        1 MOL      0.100354
    179 H80        -3.1530    5.3310   -2.6760 hn        1 MOL      0.214981
    180 Ca1         4.8140    1.8660    0.9900 Ca        1 MOL      1.743937
    181 O27         3.9390    4.5850    0.7730 oh        1 MOL     -0.867906
    182 H81         4.5050    4.9400    0.0780 ho        1 MOL      0.409026
    183 H82         3.0850    4.4840    0.3540 ho        1 MOL      0.409026
    184 O28         3.8520    2.7080    3.3510 oh        1 MOL     -0.867906
    185 H83         4.3150    3.3730    3.8580 ho        1 MOL      0.409026
    186 H84         3.1400    2.4170    3.9190 ho        1 MOL      0.409026
    187 O29         6.2770    0.6550    2.8400 oh        1 MOL     -0.867906
    188 H85         7.0460    0.2020    2.4930 ho        1 MOL      0.409026
    189 H86         6.3700    0.5690    3.7890 ho        1 MOL      0.409026
@<TRIPOS>BOND
     1    1    2 1   
     2    1    4 1   
     3    1    5 1   
     4    1    6 1   
     5    2    3 2   
     6    2    7 1   
     7    7    8 1   
     8    7   15 1   
     9    8    9 1   
    10    8   11 1   
    11    8   16 1   
    12    9   10 2   
    13    9   19 1   
    14   11   12 1   
    15   11   17 1   
    16   11   18 1   
    17   12   13 1   
    18   12   14 1   
    19   19   20 1   
    20   19   27 1   
    21   20   21 1   
    22   20   23 1   
    23   20   28 1   
    24   21   22 2   
    25   21   38 1   
    26   23   24 1   
    27   23   25 1   
    28   23   29 1   
    29   24   26 1   
    30   24   30 1   
    31   24   31 1   
    32   25   32 1   
    33   25   33 1   
    34   25   34 1   
    35   26   35 1   
    36   26   36 1   
    37   26   37 1   
    38   38   39 1   
    39   38   46 1   
    40   39   40 1   
    41   39   42 1   
    42   39   47 1   
    43   40   41 2   
    44   40   50 1   
    45   42   43 1   
    46   42   48 1   
    47   42   49 1   
    48   43   44 1   
    49   43   45 1   
    50   50   51 1   
    51   50   54 1   
    52   51   52 1   
    53   51   55 1   
    54   51   56 1   
    55   52   53 2   
    56   52   57 1   
    57   57   58 1   
    58   57   65 1   
    59   58   59 1   
    60   58   61 1   
    61   58   66 1   
    62   59   60 2   
    63   59   69 1   
    64   61   62 1   
    65   61   67 1   
    66   61   68 1   
    67   62   63 1   
    68   62   64 1   
    69   69   70 1   
    70   69   73 1   
    71   70   71 1   
    72   70   74 1   
    73   70   75 1   
    74   71   72 2   
    75   71   76 1   
    76   76   77 1   
    77   76   85 1   
    78   77   78 1   
    79   77   80 1   
    80   77   86 1   
    81   78   79 2   
    82   78   93 1   
    83   80   81 1   
    84   80   87 1   
    85   80   88 1   
    86   81   82 1   
    87   81   89 1   
    88   81   90 1   
    89   82   83 1   
    90   82   84 2   
    91   83   91 1   
    92   83   92 1   
    93   93   94 1   
    94   93  100 1   
    95   94   95 1   
    96   94   97 1   
    97   94  101 1   
    98   95   96 2   
    99   95  109 1   
   100   97   98 1   
   101   97   99 1   
   102   97  102 1   
   103   98  103 1   
   104   98  104 1   
   105   98  105 1   
   106   99  106 1   
   107   99  107 1   
   108   99  108 1   
   109  109  110 1   
   110  109  117 1   
   111  110  111 1   
   112  110  113 1   
   113  110  118 1   
   114  111  112 2   
   115  111  123 1   
   116  113  114 1   
   117  113  119 1   
   118  113  120 1   
   119  114  115 1   
   120  114  116 2   
   121  115  121 1   
   122  115  122 1   
   123  123  124 1   
   124  123  135 1   
   125  124  125 1   
   126  124  127 1   
   127  124  136 1   
   128  125  126 2   
   129  125  144 1   
   130  127  128 1   
   131  127  137 1   
   132  127  138 1   
   133  128  129 ar  
   134  128  130 ar  
   135  129  131 ar  
   136  129  139 1   
   137  130  132 ar  
   138  130  140 1   
   139  131  133 ar  
   140  131  141 1   
   141  132  133 ar  
   142  132  142 1   
   143  133  134 1   
   144  134  143 1   
   145  144  145 1   
   146  144  153 1   
   147  145  146 1   
   148  145  148 1   
   149  145  154 1   
   150  146  147 2   
   151  146  159 1   
   152  148  149 1   
   153  148  155 1   
   154  148  156 1   
   155  149  150 1   
   156  149  157 1   
   157  149  158 1   
   158  150  151 1   
   159  150  152 1   
   160  159  160 1   
   161  159  168 1   
   162  160  161 1   
   163  160  163 1   
   164  160  169 1   
   165  161  162 2   
   166  161  174 1   
   167  163  164 1   
   168  163  170 1   
   169  163  171 1   
   170  164  165 1   
   171  164  172 1   
   172  164  173 1   
   173  165  166 1   
   174  165  167 1   
   175  174  175 1   
   176  174  179 1   
   177  175  176 1   
   178  175  177 1   
   179  175  178 1   
   180  181  182 1   
   181  181  183 1   
   182  184  185 1   
   183  184  186 1   
   184  187  188 1   
   185  187  189 1   
@<TRIPOS>SUBSTRUCTURE
     1 MOL         1 TEMP              0 ****  ****    0 ROOT
