@<TRIPOS>MOLECULE
MOL
  185   180     1     0     0
SMALL
resp


@<TRIPOS>ATOM
      1 C1         -5.8660    0.7130   -3.9420 c3        1 MOL     -0.371828
      2 C2         -6.4820    1.0270   -2.5190 c         1 MOL      0.737739
      3 O1         -5.7690    1.0540   -1.5400 o         1 MOL     -0.495305
      4 H1         -5.2080    1.5290   -4.2400 hc        1 MOL      0.092285
      5 H2         -5.2940   -0.2140   -3.8940 hc        1 MOL      0.092285
      6 H3         -6.6680    0.6080   -4.6710 hc        1 MOL      0.092285
      7 N1         -7.8030    1.3480   -2.5230 n         1 MOL     -0.606545
      8 C3         -8.6570    1.4520   -1.3170 c3        1 MOL      0.063519
      9 C4         -8.6310    0.2750   -0.3470 c         1 MOL      0.558158
     10 O2         -9.1730    0.4430    0.7220 o         1 MOL     -0.544671
     11 C5         -8.3570    2.7790   -0.5560 c3        1 MOL     -0.274426
     12 C6         -8.2230    4.0450   -1.4440 c         1 MOL      0.680604
     13 O3         -7.5540    5.0130   -0.9250 o         1 MOL     -0.663302
     14 O4         -8.7240    4.1940   -2.6410 o         1 MOL     -0.663302
     15 H4         -8.1990    1.4430   -3.4450 hn        1 MOL      0.342188
     16 H5         -9.6640    1.5260   -1.7150 h1        1 MOL      0.078658
     17 H6         -7.4950    2.6390    0.1020 hc        1 MOL      0.093906
     18 H7         -9.1830    3.0110    0.1150 hc        1 MOL      0.093906
     19 N2         -7.9830   -0.8850   -0.7090 n         1 MOL     -0.571390
     20 C7         -7.7720   -2.0530    0.2180 c3        1 MOL      0.271420
     21 C8         -6.3090   -2.5730    0.2500 c         1 MOL      0.609382
     22 O5         -6.1140   -3.7730    0.3860 o         1 MOL     -0.585833
     23 C9         -8.7940   -3.1650   -0.0160 c3        1 MOL     -0.151126
     24 C10       -10.2170   -2.6510    0.2600 c3        1 MOL      0.124321
     25 C11       -11.3010   -3.6380   -0.1370 c3        1 MOL     -0.096685
     26 C12       -12.7250   -3.0160   -0.1930 c3        1 MOL     -0.088047
     27 N3        -13.3520   -2.8210    1.1170 n4        1 MOL     -0.241855
     28 H8         -7.4800   -0.9050   -1.5880 hn        1 MOL      0.223723
     29 H9         -8.0070   -1.8270    1.2580 h1        1 MOL      0.024989
     30 H10        -8.5470   -3.9490    0.7000 hc        1 MOL      0.045148
     31 H11        -8.7150   -3.6390   -0.9920 hc        1 MOL      0.045148
     32 H12       -10.4910   -1.7900   -0.3570 hc        1 MOL      0.006469
     33 H13       -10.2510   -2.4530    1.3300 hc        1 MOL      0.006469
     34 H14       -11.2360   -4.4430    0.5860 hc        1 MOL      0.055176
     35 H15       -11.0860   -3.9980   -1.1440 hc        1 MOL      0.055176
     36 H16       -13.4520   -3.5820   -0.7770 hx        1 MOL      0.118697
     37 H17       -12.4900   -2.0240   -0.5740 hx        1 MOL      0.118697
     38 H18       -12.8460   -2.2180    1.7530 hn        1 MOL      0.294475
     39 H19       -14.2810   -2.4320    1.0830 hn        1 MOL      0.294475
     40 H20       -13.5590   -3.6980    1.5940 hn        1 MOL      0.294475
     41 N4         -5.3480   -1.6510    0.1260 n         1 MOL     -0.555127
     42 C13        -3.8800   -2.0040    0.1950 c3        1 MOL      0.027778
     43 C14        -3.4050   -2.5460    1.6030 c         1 MOL      0.442211
     44 O6         -3.6840   -1.9180    2.6280 o         1 MOL     -0.482860
     45 C15        -3.0490   -0.7930   -0.2020 c3        1 MOL     -0.019562
     46 C16        -1.6250   -1.1410   -0.5200 c         1 MOL      0.640575
     47 O7         -0.8500   -1.3220    0.4460 o         1 MOL     -0.734614
     48 O8         -1.1530   -1.3030   -1.6900 o         1 MOL     -0.734614
     49 H21        -5.6390   -0.7490   -0.2340 hn        1 MOL      0.306197
     50 H22        -3.6910   -2.8100   -0.5050 h1        1 MOL      0.049594
     51 H23        -3.0310   -0.1400    0.6700 hc        1 MOL      0.052438
     52 H24        -3.4560   -0.2950   -1.0850 hc        1 MOL      0.052438
     53 N5         -2.5230   -3.5280    1.5910 n         1 MOL     -0.116633
     54 C17        -1.9880   -4.1660    2.7750 c3        1 MOL     -0.449674
     55 C18        -1.1620   -3.3220    3.7530 c         1 MOL      0.648881
     56 O9         -1.0120   -3.7200    4.9340 o         1 MOL     -0.556074
     57 H25        -2.3500   -3.9830    0.7070 hn        1 MOL      0.225188
     58 H26        -1.4680   -5.0400    2.3700 h1        1 MOL      0.172991
     59 H27        -2.8360   -4.4330    3.4120 h1        1 MOL      0.172991
     60 N6         -0.6500   -2.1510    3.2990 n         1 MOL     -0.377206
     61 C19        -0.0080   -1.2370    4.1660 c3        1 MOL      0.096029
     62 C20        -0.5270    0.2110    4.0610 c         1 MOL      0.386694
     63 O10         0.1780    1.0870    4.6330 o         1 MOL     -0.510970
     64 C21         1.5380   -1.4670    4.0980 c3        1 MOL     -0.404944
     65 C22         2.2380   -0.9910    2.8210 c         1 MOL      0.769072
     66 N7          2.9860    0.0450    2.9060 n         1 MOL     -0.635783
     67 O11         2.0520   -1.5890    1.7300 o         1 MOL     -0.739985
     68 H28        -0.6680   -1.9890    2.2980 hn        1 MOL      0.294344
     69 H29        -0.3470   -1.5180    5.1640 h1        1 MOL      0.111444
     70 H30         1.7100   -2.5150    4.3230 hc        1 MOL      0.126466
     71 H31         1.9410   -0.9120    4.9380 hc        1 MOL      0.126466
     72 H32         3.3830    0.2750    3.8070 hn        1 MOL      0.306557
     73 H33         3.5720    0.2720    2.1110 hn        1 MOL      0.306557
     74 N8         -1.5930    0.5270    3.3140 n         1 MOL     -0.180100
     75 C23        -2.0920    1.9230    3.0040 c3        1 MOL     -0.247161
     76 C24        -1.3500    2.6910    1.9520 c         1 MOL      0.535329
     77 O12        -1.3560    3.9420    2.0280 o         1 MOL     -0.508109
     78 H34        -2.0230   -0.2030    2.7680 hn        1 MOL      0.088238
     79 H35        -2.3740    2.4900    3.8910 h1        1 MOL      0.149682
     80 H36        -3.0320    1.7000    2.4940 h1        1 MOL      0.149682
     81 N9         -0.7580    1.9370    0.9810 n         1 MOL     -0.492286
     82 C25        -0.0330    2.5490   -0.1630 c3        1 MOL      0.192564
     83 C26         1.2090    1.8360   -0.4570 c         1 MOL      0.555779
     84 O13         1.4020    0.6490   -0.2860 o         1 MOL     -0.652603
     85 C27        -0.9950    2.6100   -1.4020 c3        1 MOL     -0.064684
     86 C28        -2.0670    3.6270   -1.1840 ca        1 MOL      0.085082
     87 C29        -1.8160    4.9880   -1.2410 ca        1 MOL     -0.219578
     88 C30        -3.3790    3.1770   -1.0230 ca        1 MOL     -0.219578
     89 C31        -2.8070    5.9400   -1.0670 ca        1 MOL     -0.194799
     90 C32        -4.4290    4.0750   -0.9490 ca        1 MOL     -0.194799
     91 C33        -4.1800    5.4870   -0.9160 ca        1 MOL      0.356585
     92 O14        -5.2050    6.3520   -0.9090 oh        1 MOL     -0.537631
     93 H37        -0.7990    0.9270    0.9990 hn        1 MOL      0.397508
     94 H38         0.1300    3.5900    0.1330 h1        1 MOL      0.045667
     95 H39        -1.5520    1.7050   -1.6130 hc        1 MOL      0.012029
     96 H40        -0.4560    2.8890   -2.3080 hc        1 MOL      0.012029
     97 H41        -0.8390    5.4270   -1.4140 ha        1 MOL      0.109150
     98 H42        -3.5720    2.1160   -1.1160 ha        1 MOL      0.109150
     99 H43        -2.6730    7.0100   -1.0790 ha        1 MOL      0.121344
    100 H44        -5.4230    3.6800   -0.7930 ha        1 MOL      0.121344
    101 H45        -6.0760    5.9970   -0.7420 ho        1 MOL      0.407778
    102 N10         2.2450    2.5240   -0.8700 n         1 MOL     -0.728473
    103 C34         3.6300    2.0130   -1.0380 c3        1 MOL      0.850878
    104 C35         4.3820    2.0110    0.3410 c         1 MOL      0.216505
    105 O15         4.9230    0.9920    0.6910 o         1 MOL     -0.355549
    106 C36         4.3100    3.0070   -1.9840 c3        1 MOL     -0.069668
    107 C37         3.4740    3.4880   -3.1530 c3        1 MOL      0.216395
    108 C38         5.6440    2.3780   -2.3330 c3        1 MOL     -0.692403
    109 C39         3.0170    2.5410   -4.2380 c3        1 MOL     -0.114138
    110 H46         2.1300    3.4900   -1.1620 hn        1 MOL      0.263623
    111 H47         3.7620    1.0250   -1.4790 h1        1 MOL     -0.189768
    112 H48         4.5470    3.8800   -1.3800 hc        1 MOL     -0.073057
    113 H49         4.1030    4.1730   -3.7310 hc        1 MOL     -0.032069
    114 H50         2.6300    4.1450   -2.9310 hc        1 MOL     -0.032069
    115 H51         6.2430    3.0250   -2.9760 hc        1 MOL      0.188096
    116 H52         6.2510    2.1100   -1.4600 hc        1 MOL      0.188096
    117 H53         5.4710    1.5090   -2.9690 hc        1 MOL      0.188096
    118 H54         2.6040    3.0650   -5.1040 hc        1 MOL      0.030720
    119 H55         3.8370    1.8590   -4.4530 hc        1 MOL      0.030720
    120 H56         2.1660    2.0290   -3.7890 hc        1 MOL      0.030720
    121 N11         4.2570    3.0790    1.0580 n         1 MOL     -0.212017
    122 C40         5.0910    3.3450    2.2540 c3        1 MOL     -0.051225
    123 C41         6.6650    3.0920    2.1670 c         1 MOL      0.385238
    124 O16         7.1820    2.5940    3.1870 o         1 MOL     -0.451971
    125 C42         4.8850    4.8330    2.6400 c3        1 MOL      0.137946
    126 O17         3.4600    4.8860    2.8550 oh        1 MOL     -0.555381
    127 H57         3.6820    3.8280    0.6990 hn        1 MOL      0.227283
    128 H58         4.6970    2.7320    3.0650 h1        1 MOL      0.147655
    129 H59         5.1940    5.4210    1.7710 h1        1 MOL      0.038298
    130 H60         5.4590    5.0860    3.5230 h1        1 MOL      0.038298
    131 H61         3.2630    5.8110    3.0050 ho        1 MOL      0.400979
    132 N12         7.2720    3.2770    0.9870 n         1 MOL     -0.436652
    133 C43         8.5380    2.7540    0.5550 c3        1 MOL      0.211909
    134 C44         8.7880    1.2300    0.6440 c         1 MOL      0.384825
    135 O18         9.9520    0.8070    0.7950 o         1 MOL     -0.532065
    136 C45         9.6390    3.6590    1.0880 c3        1 MOL     -0.321964
    137 H62         6.8090    3.7590    0.2330 hn        1 MOL      0.313670
    138 H63         8.5710    2.8690   -0.5290 h1        1 MOL      0.051660
    139 H64         9.7870    3.6460    2.1650 hc        1 MOL      0.098931
    140 H65        10.6560    3.4920    0.7430 hc        1 MOL      0.098931
    141 H66         9.4120    4.6760    0.7490 hc        1 MOL      0.098931
    142 N13         7.7980    0.3300    0.5780 n         1 MOL     -0.093411
    143 C46         7.9210   -1.1330    0.5730 c3        1 MOL      0.167905
    144 C47         7.1320   -1.8430   -0.6070 c         1 MOL      0.331281
    145 O19         6.4070   -1.1910   -1.3180 o         1 MOL     -0.450691
    146 C48         7.5260   -1.7130    1.9840 c3        1 MOL     -0.351656
    147 H67         6.8880    0.7330    0.4010 hn        1 MOL     -0.023990
    148 H68         8.9620   -1.3870    0.3440 h1        1 MOL      0.032553
    149 H69         8.0080   -1.1010    2.7460 hc        1 MOL      0.113324
    150 H70         6.4590   -1.5140    2.0800 hc        1 MOL      0.113324
    151 H71         7.6950   -2.7900    2.0680 hc        1 MOL      0.113324
    152 N14         7.3100   -3.1140   -0.8350 n         1 MOL     -0.343499
    153 C49         6.9090   -3.9570   -1.9380 c3        1 MOL      0.080852
    154 C50         7.2820   -3.4270   -3.2820 c         1 MOL      0.438261
    155 O20         6.7070   -3.7520   -4.3370 o         1 MOL     -0.500248
    156 C51         5.4840   -4.4890   -1.8710 c3        1 MOL      0.007175
    157 C52         4.9920   -4.7700   -0.4130 c3        1 MOL     -0.073685
    158 C53         3.4380   -4.9700   -0.5410 c         1 MOL      0.784251
    159 O21         2.9610   -5.8950   -1.2440 o         1 MOL     -0.736031
    160 O22         2.7790   -4.1710    0.0790 o         1 MOL     -0.736031
    161 H72         7.7980   -3.5900   -0.0940 hn        1 MOL      0.257378
    162 H73         7.4930   -4.8590   -1.8030 h1        1 MOL      0.038929
    163 H74         5.4590   -5.3920   -2.4750 hc        1 MOL      0.006643
    164 H75         4.8510   -3.7170   -2.3090 hc        1 MOL      0.006643
    165 H76         5.2230   -3.9200    0.2380 hc        1 MOL     -0.011949
    166 H77         5.4180   -5.6330    0.1030 hc        1 MOL     -0.011949
    167 N15         8.3390   -2.6390   -3.2770 n         1 MOL     -0.265782
    168 C54         8.8610   -1.8780   -4.3970 c3        1 MOL     -0.056497
    169 H78         8.5920   -2.3730   -5.3300 h1        1 MOL      0.061587
    170 H79         8.4370   -0.8730   -4.3840 h1        1 MOL      0.061587
    171 H80         9.9470   -1.8140   -4.3200 h1        1 MOL      0.061587
    172 H81         8.9770   -2.7370   -2.5000 hn        1 MOL      0.204387
    173 Ca1         1.3450   -2.1560   -0.7620 Ca        1 MOL      1.800502
    174 O23        -0.3640   -4.2480   -0.9880 oh        1 MOL     -0.838801
    175 H82        -0.5300   -4.3240   -1.9200 ho        1 MOL      0.405657
    176 H83        -0.5590   -5.1150   -0.6360 ho        1 MOL      0.405657
    177 O24         3.9370   -1.2760   -0.6640 oh        1 MOL     -0.838801
    178 H84         4.8100   -1.5110   -0.9580 ho        1 MOL      0.405657
    179 H85         4.0600   -0.4760   -0.1520 ho        1 MOL      0.405657
    180 O25         0.6710   -0.7340   -3.2690 oh        1 MOL     -0.838801
    181 H86         0.5930   -0.1240   -4.0060 ho        1 MOL      0.405657
    182 H87        -0.1750   -0.6860   -2.8310 ho        1 MOL      0.405657
    183 O26         2.1680   -3.7160   -2.9430 oh        1 MOL     -0.838801
    184 H88         1.9570   -3.8600   -3.8650 ho        1 MOL      0.405657
    185 H89         2.4310   -4.5790   -2.6260 ho        1 MOL      0.405657
@<TRIPOS>BOND
     1    1    2 1   
     2    1    4 1   
     3    1    5 1   
     4    1    6 1   
     5    2    3 2   
     6    2    7 1   
     7    7    8 1   
     8    7   15 1   
     9    8    9 1   
    10    8   11 1   
    11    8   16 1   
    12    9   10 2   
    13    9   19 1   
    14   11   12 1   
    15   11   17 1   
    16   11   18 1   
    17   12   13 1   
    18   12   14 1   
    19   19   20 1   
    20   19   28 1   
    21   20   21 1   
    22   20   23 1   
    23   20   29 1   
    24   21   22 2   
    25   21   41 1   
    26   23   24 1   
    27   23   30 1   
    28   23   31 1   
    29   24   25 1   
    30   24   32 1   
    31   24   33 1   
    32   25   26 1   
    33   25   34 1   
    34   25   35 1   
    35   26   27 1   
    36   26   36 1   
    37   26   37 1   
    38   27   38 1   
    39   27   39 1   
    40   27   40 1   
    41   41   42 1   
    42   41   49 1   
    43   42   43 1   
    44   42   45 1   
    45   42   50 1   
    46   43   44 2   
    47   43   53 1   
    48   45   46 1   
    49   45   51 1   
    50   45   52 1   
    51   46   47 1   
    52   46   48 1   
    53   53   54 1   
    54   53   57 1   
    55   54   55 1   
    56   54   58 1   
    57   54   59 1   
    58   55   56 2   
    59   55   60 1   
    60   60   61 1   
    61   60   68 1   
    62   61   62 1   
    63   61   64 1   
    64   61   69 1   
    65   62   63 2   
    66   62   74 1   
    67   64   65 1   
    68   64   70 1   
    69   64   71 1   
    70   65   66 1   
    71   65   67 2   
    72   66   72 1   
    73   66   73 1   
    74   74   75 1   
    75   74   78 1   
    76   75   76 1   
    77   75   79 1   
    78   75   80 1   
    79   76   77 2   
    80   76   81 1   
    81   81   82 1   
    82   81   93 1   
    83   82   83 1   
    84   82   85 1   
    85   82   94 1   
    86   83   84 2   
    87   83  102 1   
    88   85   86 1   
    89   85   95 1   
    90   85   96 1   
    91   86   87 ar  
    92   86   88 ar  
    93   87   89 ar  
    94   87   97 1   
    95   88   90 ar  
    96   88   98 1   
    97   89   91 ar  
    98   89   99 1   
    99   90   91 ar  
   100   90  100 1   
   101   91   92 1   
   102   92  101 1   
   103  102  103 1   
   104  102  110 1   
   105  103  104 1   
   106  103  106 1   
   107  103  111 1   
   108  104  105 2   
   109  104  121 1   
   110  106  107 1   
   111  106  108 1   
   112  106  112 1   
   113  107  109 1   
   114  107  113 1   
   115  107  114 1   
   116  108  115 1   
   117  108  116 1   
   118  108  117 1   
   119  109  118 1   
   120  109  119 1   
   121  109  120 1   
   122  121  122 1   
   123  121  127 1   
   124  122  123 1   
   125  122  125 1   
   126  122  128 1   
   127  123  124 2   
   128  123  132 1   
   129  125  126 1   
   130  125  129 1   
   131  125  130 1   
   132  126  131 1   
   133  132  133 1   
   134  132  137 1   
   135  133  134 1   
   136  133  136 1   
   137  133  138 1   
   138  134  135 2   
   139  134  142 1   
   140  136  139 1   
   141  136  140 1   
   142  136  141 1   
   143  142  143 1   
   144  142  147 1   
   145  143  144 1   
   146  143  146 1   
   147  143  148 1   
   148  144  145 2   
   149  144  152 1   
   150  146  149 1   
   151  146  150 1   
   152  146  151 1   
   153  152  153 1   
   154  152  161 1   
   155  153  154 1   
   156  153  156 1   
   157  153  162 1   
   158  154  155 2   
   159  154  167 1   
   160  156  157 1   
   161  156  163 1   
   162  156  164 1   
   163  157  158 1   
   164  157  165 1   
   165  157  166 1   
   166  158  159 1   
   167  158  160 1   
   168  167  168 1   
   169  167  172 1   
   170  168  169 1   
   171  168  170 1   
   172  168  171 1   
   173  174  175 1   
   174  174  176 1   
   175  177  178 1   
   176  177  179 1   
   177  180  181 1   
   178  180  182 1   
   179  183  184 1   
   180  183  185 1   
@<TRIPOS>SUBSTRUCTURE
     1 MOL         1 TEMP              0 ****  ****    0 ROOT
