@<TRIPOS>MOLECULE
MOL
  182   178     1     0     0
SMALL
resp


@<TRIPOS>ATOM
      1 C1          0.6860   -4.8370    5.5270 c3        1 MOL     -0.341650
      2 C2          0.6500   -4.6480    4.0690 c         1 MOL      0.826023
      3 O1         -0.2280   -5.1180    3.3350 o         1 MOL     -0.672800
      4 H1         -0.1190   -5.5070    5.8260 hc        1 MOL      0.084850
      5 H2          1.6450   -5.2700    5.8140 hc        1 MOL      0.084850
      6 H3          0.5590   -3.8730    6.0220 hc        1 MOL      0.084850
      7 N1          1.6570   -3.9140    3.6260 n         1 MOL     -0.557473
      8 C3          1.9940   -3.3980    2.3690 c3        1 MOL     -0.186514
      9 C4          1.8940   -4.4080    1.2950 c         1 MOL      1.021238
     10 O2          2.5120   -5.4480    1.4580 o         1 MOL     -0.605807
     11 C5          3.3240   -2.5910    2.3090 c3        1 MOL      0.106242
     12 C6          3.4200   -1.7590    0.9710 c         1 MOL      0.459581
     13 O3          4.2410   -0.7610    0.8530 o         1 MOL     -0.729273
     14 O4          2.9350   -2.1530   -0.0630 o         1 MOL     -0.729273
     15 H4          2.2150   -3.5610    4.3950 hn        1 MOL      0.294836
     16 H5          1.2030   -2.6550    2.1960 h1        1 MOL     -0.090826
     17 H6          4.1980   -3.2440    2.3330 hc        1 MOL      0.030304
     18 H7          3.3300   -1.9530    3.1960 hc        1 MOL      0.030304
     19 N2          1.0190   -4.1840    0.2780 n         1 MOL     -0.755127
     20 C7          0.7290   -5.1030   -0.8770 c3        1 MOL      0.001188
     21 C8          1.7500   -5.0030   -2.0490 c         1 MOL      0.453149
     22 O5          1.4790   -5.5190   -3.1300 o         1 MOL     -0.543330
     23 C9         -0.6310   -4.9930   -1.4690 c3        1 MOL      0.139783
     24 C10        -1.6930   -5.4040   -0.4030 c3        1 MOL      0.008182
     25 C11        -2.9190   -6.0380   -1.1440 c3        1 MOL     -0.178237
     26 C12        -4.1630   -6.1430   -0.1880 c3        1 MOL      0.126170
     27 N3         -3.9970   -7.2750    0.7860 n4        1 MOL     -0.424286
     28 H8          0.7710   -3.2260    0.0590 hn        1 MOL      0.455652
     29 H9          0.7500   -6.1490   -0.5390 h1        1 MOL      0.085115
     30 H10        -0.7530   -5.7010   -2.2930 hc        1 MOL     -0.008954
     31 H11        -0.8160   -3.9800   -1.8260 hc        1 MOL     -0.008954
     32 H12        -2.0470   -4.5470    0.1630 hc        1 MOL      0.018313
     33 H13        -1.2990   -6.1930    0.2410 hc        1 MOL      0.018313
     34 H14        -2.5830   -6.9510   -1.6140 hc        1 MOL      0.077296
     35 H15        -3.2030   -5.3190   -1.9110 hc        1 MOL      0.077296
     36 H16        -5.0720   -6.3090   -0.7660 hx        1 MOL      0.066018
     37 H17        -4.2450   -5.1930    0.3330 hx        1 MOL      0.066018
     38 H18        -3.1260   -7.1520    1.2770 hn        1 MOL      0.335677
     39 H19        -4.7440   -7.2810    1.4650 hn        1 MOL      0.335677
     40 H20        -3.9570   -8.1650    0.2940 hn        1 MOL      0.335677
     41 N4          2.8720   -4.3080   -1.8260 n         1 MOL     -0.115704
     42 C13         4.0450   -4.1820   -2.7920 c3        1 MOL      0.084279
     43 C14         5.3800   -4.0380   -2.0790 c         1 MOL      0.390537
     44 O6          6.3640   -4.7450   -2.4180 o         1 MOL     -0.536583
     45 C15         3.8520   -3.0540   -3.9070 c3        1 MOL     -0.342509
     46 C16         3.3260   -1.7730   -3.1930 c         1 MOL      0.776694
     47 O7          4.1490   -0.9700   -2.6890 o         1 MOL     -0.756682
     48 O8          2.0910   -1.6010   -3.0480 o         1 MOL     -0.756682
     49 H21         2.9840   -3.8800   -0.9150 hn        1 MOL     -0.069965
     50 H22         4.1850   -5.1840   -3.2060 h1        1 MOL      0.070499
     51 H23         3.0390   -3.4170   -4.5350 hc        1 MOL      0.112390
     52 H24         4.6950   -2.9820   -4.5940 hc        1 MOL      0.112390
     53 N5          5.3940   -3.2610   -1.0200 n         1 MOL     -0.180548
     54 C17         6.5840   -2.9950   -0.1750 c3        1 MOL     -0.238060
     55 C18         7.1430   -1.5930   -0.0980 c         1 MOL      0.562235
     56 O9          8.0720   -1.4200    0.6880 o         1 MOL     -0.581645
     57 H25         4.6500   -2.6000   -0.8150 hn        1 MOL      0.406900
     58 H26         7.3760   -3.6390   -0.5370 h1        1 MOL      0.132920
     59 H27         6.4700   -3.3960    0.8330 h1        1 MOL      0.132920
     60 N6          6.6860   -0.5300   -0.7800 n         1 MOL     -0.373043
     61 C19         7.2120    0.8610   -0.8720 c3        1 MOL      0.502567
     62 C20         5.9990    1.8090   -0.9650 c         1 MOL      0.064611
     63 O10         4.8260    1.4250   -0.9580 o         1 MOL     -0.166548
     64 C21         8.2070    0.9740   -2.0510 c3        1 MOL     -0.282156
     65 C22         9.3290    1.9380   -1.8820 c         1 MOL      0.534099
     66 N7         10.5510    1.4420   -1.8050 n         1 MOL     -0.659835
     67 O11         9.0780    3.1560   -1.6620 o         1 MOL     -0.555200
     68 H28         5.9210   -0.6930   -1.4240 hn        1 MOL      0.154995
     69 H29         7.8360    0.9860    0.0130 h1        1 MOL      0.008096
     70 H30         7.5780    1.2300   -2.9050 hc        1 MOL      0.075076
     71 H31         8.5080   -0.0620   -2.1880 hc        1 MOL      0.075076
     72 H32        10.7410    0.4750   -2.0290 hn        1 MOL      0.355151
     73 H33        11.2620    2.1490   -1.7160 hn        1 MOL      0.355151
     74 N8          6.2100    3.0840   -1.1460 n         1 MOL     -0.331033
     75 C23         5.1830    4.1660   -1.2380 c3        1 MOL     -0.031943
     76 C24         4.2830    4.3450   -0.0220 c         1 MOL      0.613418
     77 O12         4.7540    4.1990    1.0860 o         1 MOL     -0.501569
     78 H34         7.1650    3.4190   -1.2490 hn        1 MOL      0.292779
     79 H35         4.4050    3.7990   -1.9070 h1        1 MOL      0.059634
     80 H36         5.5430    5.1040   -1.6640 h1        1 MOL      0.059634
     81 N9          3.0040    4.6870   -0.2240 n         1 MOL     -0.645436
     82 C25         2.0760    4.6220    0.9340 c3        1 MOL      0.146028
     83 C26         1.8790    3.1090    1.4830 c         1 MOL      0.701018
     84 O13         2.3830    2.1170    0.9480 o         1 MOL     -0.639889
     85 C27         0.7730    5.2630    0.5580 c3        1 MOL     -0.271084
     86 C28         0.9580    6.7550    0.1260 ca        1 MOL      0.112396
     87 C29         0.4630    7.2400   -1.1070 ca        1 MOL     -0.123779
     88 C30         1.3130    7.6560    1.1080 ca        1 MOL     -0.123779
     89 C31         0.1960    8.6170   -1.2650 ca        1 MOL     -0.318288
     90 C32         1.1120    9.0320    0.9110 ca        1 MOL     -0.318288
     91 C33         0.4960    9.5310   -0.2790 ca        1 MOL      0.409222
     92 O14         0.1490   10.8780   -0.3010 oh        1 MOL     -0.512635
     93 H37         2.6390    4.6950   -1.1620 hn        1 MOL      0.326599
     94 H38         2.4800    5.1210    1.8170 h1        1 MOL      0.068444
     95 H39        -0.0230    5.2170    1.3050 hc        1 MOL      0.077606
     96 H40         0.4150    4.7480   -0.3280 hc        1 MOL      0.077606
     97 H41         0.1080    6.5290   -1.8320 ha        1 MOL      0.123993
     98 H42         1.6270    7.2750    2.0650 ha        1 MOL      0.123993
     99 H43        -0.2950    8.9140   -2.1700 ha        1 MOL      0.169941
    100 H44         1.3490    9.7440    1.6820 ha        1 MOL      0.169941
    101 H45         0.5410   11.4000    0.4030 ho        1 MOL      0.376753
    102 N10         1.1520    2.9390    2.5480 n         1 MOL     -0.617694
    103 C34         0.5730    1.7320    3.1990 c3        1 MOL      0.099811
    104 C35         0.2530    0.5740    2.1900 c         1 MOL      0.665502
    105 O15         1.1350   -0.1330    1.6170 o         1 MOL     -0.465750
    106 C36         1.5570    1.1510    4.2590 c3        1 MOL      0.327619
    107 C37         1.1450   -0.1390    4.9920 c3        1 MOL     -0.206274
    108 C38         2.0320    2.2090    5.3190 c3        1 MOL     -0.285651
    109 C39        -0.0540   -0.1160    5.8260 c3        1 MOL     -0.132580
    110 H46         0.7690    3.7980    2.9270 hn        1 MOL      0.297834
    111 H47        -0.4080    1.9950    3.6160 h1        1 MOL      0.026555
    112 H48         2.4340    0.8690    3.6700 hc        1 MOL     -0.003693
    113 H49         2.0340   -0.3350    5.5980 hc        1 MOL      0.083658
    114 H50         0.9280   -0.9270    4.2660 hc        1 MOL      0.083658
    115 H51         1.1780    2.6320    5.8510 hc        1 MOL      0.069406
    116 H52         2.7890    1.8000    5.9780 hc        1 MOL      0.069406
    117 H53         2.5320    2.9910    4.7400 hc        1 MOL      0.069406
    118 H54        -0.2110   -1.1730    6.0010 hc        1 MOL      0.029141
    119 H55         0.0720    0.4870    6.7320 hc        1 MOL      0.029141
    120 H56        -0.9880    0.1770    5.3360 hc        1 MOL      0.029141
    121 N11        -1.0420    0.2410    2.1880 n         1 MOL     -0.840999
    122 C40        -1.5650   -0.9920    1.5330 c3        1 MOL      0.641130
    123 C41        -2.7620   -0.8380    0.6080 c         1 MOL      0.429031
    124 O16        -3.0050   -1.7380   -0.1920 o         1 MOL     -0.509135
    125 C42        -1.9690   -1.8590    2.7180 c3        1 MOL     -0.013361
    126 O17        -2.7620   -1.2150    3.7400 oh        1 MOL     -0.600191
    127 H57        -1.6930    0.6460    2.8560 hn        1 MOL      0.377933
    128 H58        -0.8460   -1.4620    0.8490 h1        1 MOL     -0.100781
    129 H59        -1.0030   -2.2010    3.0900 h1        1 MOL      0.048482
    130 H60        -2.5610   -2.7150    2.3900 h1        1 MOL      0.048482
    131 H61        -2.7440   -1.8440    4.4660 ho        1 MOL      0.424514
    132 N12        -3.5290    0.2640    0.6280 n         1 MOL     -0.469776
    133 C43        -4.8060    0.5010   -0.1140 c3        1 MOL      0.142159
    134 C44        -4.6930    0.4670   -1.6090 c         1 MOL      0.675869
    135 O18        -3.6530    0.6010   -2.1330 o         1 MOL     -0.585894
    136 C45        -5.3350    1.8900    0.3710 c3        1 MOL     -0.240962
    137 H62        -3.2910    0.9540    1.3230 hn        1 MOL      0.262053
    138 H63        -5.4970   -0.2970    0.1300 h1        1 MOL      0.059540
    139 H64        -5.5670    1.9580    1.4360 hc        1 MOL      0.074925
    140 H65        -4.5880    2.5850    0.0030 hc        1 MOL      0.074925
    141 H66        -6.2210    2.0900   -0.2210 hc        1 MOL      0.074925
    142 N13        -5.7470    0.3380   -2.4320 n         1 MOL     -0.674635
    143 C46        -7.1390    0.0570   -2.0660 c3        1 MOL      0.341409
    144 C47        -8.0430    1.3110   -2.4560 c         1 MOL      0.406115
    145 O19        -7.6950    1.9940   -3.4370 o         1 MOL     -0.562846
    146 C48        -7.5920   -1.1710   -2.7320 c3        1 MOL     -0.200806
    147 H67        -5.5600    0.4970   -3.4100 hn        1 MOL      0.362437
    148 H68        -7.3310   -0.1430   -1.0110 h1        1 MOL     -0.014746
    149 H69        -8.6740   -1.2900   -2.7540 hc        1 MOL      0.059993
    150 H70        -7.2090   -1.2050   -3.7450 hc        1 MOL      0.059993
    151 H71        -7.1450   -2.0510   -2.2660 hc        1 MOL      0.059993
    152 N14        -9.1240    1.7210   -1.8080 n         1 MOL     -0.292843
    153 C49        -9.6050    1.2120   -0.4660 c3        1 MOL     -0.207786
    154 C50        -9.1540    2.0470    0.7360 c         1 MOL      0.524966
    155 O20        -8.6790    1.4250    1.7400 o         1 MOL     -0.525789
    156 C51       -11.1760    0.9930   -0.4770 c3        1 MOL      0.112278
    157 C52       -11.7830    0.1330   -1.5490 c3        1 MOL     -0.054240
    158 C53       -11.6290   -1.3900   -1.4150 c         1 MOL      0.695112
    159 O21       -11.2070   -1.9830   -2.4240 o         1 MOL     -0.707839
    160 O22       -11.7960   -1.9360   -0.2410 o         1 MOL     -0.707839
    161 H72        -9.4910    2.5940   -2.1590 hn        1 MOL      0.268196
    162 H73        -9.2220    0.2110   -0.2640 h1        1 MOL      0.138590
    163 H74       -11.6620    1.9670   -0.4460 hc        1 MOL     -0.021731
    164 H75       -11.3450    0.5290    0.4880 hc        1 MOL     -0.021731
    165 H76       -11.2510    0.4440   -2.4500 hc        1 MOL     -0.024981
    166 H77       -12.8630    0.3140   -1.6180 hc        1 MOL     -0.024981
    167 N15        -9.1740    3.3850    0.5950 n         1 MOL     -0.352495
    168 C54        -8.5760    4.3220    1.5190 c3        1 MOL     -0.135012
    169 H78        -7.9260    5.0050    0.9730 h1        1 MOL      0.089252
    170 H79        -9.3600    4.8890    2.0200 h1        1 MOL      0.089252
    171 H80        -7.9900    3.7770    2.2610 h1        1 MOL      0.089252
    172 H81        -9.3420    3.6620   -0.3590 hn        1 MOL      0.263022
    173 Ca1         2.3910    0.2470   -0.9600 Ca        1 MOL      1.753840
    174 O23         0.1570   -1.4180   -1.3600 oh        1 MOL     -0.881896
    175 H82         0.7180   -1.6340   -2.1090 ho        1 MOL      0.424662
    176 H83        -0.7370   -1.6180   -1.6540 ho        1 MOL      0.424662
    177 O24         2.7280    2.1120   -2.8680 oh        1 MOL     -0.881896
    178 H84         2.8490    1.6570   -3.7120 ho        1 MOL      0.424662
    179 H85         2.3570    2.9680   -3.1050 ho        1 MOL      0.424662
    180 O25         0.0380    1.6820   -1.3040 oh        1 MOL     -0.881896
    181 H86        -0.8110    2.0070   -0.9850 ho        1 MOL      0.424662
    182 H87        -0.0930    1.5670   -2.2480 ho        1 MOL      0.424662
@<TRIPOS>BOND
     1    1    2 1   
     2    1    4 1   
     3    1    5 1   
     4    1    6 1   
     5    2    3 2   
     6    2    7 1   
     7    7    8 1   
     8    7   15 1   
     9    8    9 1   
    10    8   11 1   
    11    8   16 1   
    12    9   10 2   
    13    9   19 1   
    14   11   12 1   
    15   11   17 1   
    16   11   18 1   
    17   12   13 1   
    18   12   14 1   
    19   19   20 1   
    20   19   28 1   
    21   20   21 1   
    22   20   23 1   
    23   20   29 1   
    24   21   22 2   
    25   21   41 1   
    26   23   24 1   
    27   23   30 1   
    28   23   31 1   
    29   24   25 1   
    30   24   32 1   
    31   24   33 1   
    32   25   26 1   
    33   25   34 1   
    34   25   35 1   
    35   26   27 1   
    36   26   36 1   
    37   26   37 1   
    38   27   38 1   
    39   27   39 1   
    40   27   40 1   
    41   41   42 1   
    42   41   49 1   
    43   42   43 1   
    44   42   45 1   
    45   42   50 1   
    46   43   44 2   
    47   43   53 1   
    48   45   46 1   
    49   45   51 1   
    50   45   52 1   
    51   46   47 1   
    52   46   48 1   
    53   53   54 1   
    54   53   57 1   
    55   54   55 1   
    56   54   58 1   
    57   54   59 1   
    58   55   56 2   
    59   55   60 1   
    60   60   61 1   
    61   60   68 1   
    62   61   62 1   
    63   61   64 1   
    64   61   69 1   
    65   62   63 2   
    66   62   74 1   
    67   64   65 1   
    68   64   70 1   
    69   64   71 1   
    70   65   66 1   
    71   65   67 2   
    72   66   72 1   
    73   66   73 1   
    74   74   75 1   
    75   74   78 1   
    76   75   76 1   
    77   75   79 1   
    78   75   80 1   
    79   76   77 2   
    80   76   81 1   
    81   81   82 1   
    82   81   93 1   
    83   82   83 1   
    84   82   85 1   
    85   82   94 1   
    86   83   84 2   
    87   83  102 1   
    88   85   86 1   
    89   85   95 1   
    90   85   96 1   
    91   86   87 ar  
    92   86   88 ar  
    93   87   89 ar  
    94   87   97 1   
    95   88   90 ar  
    96   88   98 1   
    97   89   91 ar  
    98   89   99 1   
    99   90   91 ar  
   100   90  100 1   
   101   91   92 1   
   102   92  101 1   
   103  102  103 1   
   104  102  110 1   
   105  103  104 1   
   106  103  106 1   
   107  103  111 1   
   108  104  105 2   
   109  104  121 1   
   110  106  107 1   
   111  106  108 1   
   112  106  112 1   
   113  107  109 1   
   114  107  113 1   
   115  107  114 1   
   116  108  115 1   
   117  108  116 1   
   118  108  117 1   
   119  109  118 1   
   120  109  119 1   
   121  109  120 1   
   122  121  122 1   
   123  121  127 1   
   124  122  123 1   
   125  122  125 1   
   126  122  128 1   
   127  123  124 2   
   128  123  132 1   
   129  125  126 1   
   130  125  129 1   
   131  125  130 1   
   132  126  131 1   
   133  132  133 1   
   134  132  137 1   
   135  133  134 1   
   136  133  136 1   
   137  133  138 1   
   138  134  135 2   
   139  134  142 1   
   140  136  139 1   
   141  136  140 1   
   142  136  141 1   
   143  142  143 1   
   144  142  147 1   
   145  143  144 1   
   146  143  146 1   
   147  143  148 1   
   148  144  145 2   
   149  144  152 1   
   150  146  149 1   
   151  146  150 1   
   152  146  151 1   
   153  152  153 1   
   154  152  161 1   
   155  153  154 1   
   156  153  156 1   
   157  153  162 1   
   158  154  155 2   
   159  154  167 1   
   160  156  157 1   
   161  156  163 1   
   162  156  164 1   
   163  157  158 1   
   164  157  165 1   
   165  157  166 1   
   166  158  159 1   
   167  158  160 1   
   168  167  168 1   
   169  167  172 1   
   170  168  169 1   
   171  168  170 1   
   172  168  171 1   
   173  174  175 1   
   174  174  176 1   
   175  177  178 1   
   176  177  179 1   
   177  180  181 1   
   178  180  182 1   
@<TRIPOS>SUBSTRUCTURE
     1 MOL         1 TEMP              0 ****  ****    0 ROOT
