@<TRIPOS>MOLECULE
MOL
  194   186     1     0     0
SMALL
resp


@<TRIPOS>ATOM
      1 C1         -0.6140   -2.6820    3.4390 c3        1 MOL     -0.471370
      2 C2         -1.7990   -2.4420    2.4790 c         1 MOL      0.779836
      3 O1         -1.5750   -2.5490    1.2750 o         1 MOL     -0.627784
      4 H1         -0.4480   -1.7880    4.0410 hc        1 MOL      0.112480
      5 H2         -0.8410   -3.5230    4.0940 hc        1 MOL      0.112480
      6 H3          0.2840   -2.9030    2.8610 hc        1 MOL      0.112480
      7 N1         -2.9680   -2.1710    3.0250 n         1 MOL     -0.550601
      8 C3         -4.2800   -2.1640    2.3910 c3        1 MOL      0.076952
      9 C4         -4.9180   -0.8250    2.4680 c         1 MOL      0.247409
     10 O2         -6.1670   -0.8570    2.4900 o         1 MOL     -0.406839
     11 C5         -5.1930   -3.3180    2.8650 c3        1 MOL      0.080395
     12 C6         -5.2460   -3.4970    4.4040 c         1 MOL      0.625695
     13 O3         -5.7680   -4.5720    4.8660 o         1 MOL     -0.653425
     14 O4         -4.8970   -2.5340    5.0590 o         1 MOL     -0.653425
     15 H4         -2.9910   -1.9420    3.9970 hn        1 MOL      0.261170
     16 H5         -4.0820   -2.4230    1.3550 h1        1 MOL      0.032467
     17 H6         -4.8500   -4.2640    2.4460 hc        1 MOL     -0.012338
     18 H7         -6.1810   -3.2330    2.4170 hc        1 MOL     -0.012338
     19 N2         -4.2540    0.3050    2.7800 n         1 MOL     -0.113608
     20 C7         -4.8690    1.5710    3.2650 c3        1 MOL      0.073711
     21 C8         -6.0890    2.0340    2.4740 c         1 MOL      0.497271
     22 O5         -7.0950    2.5770    3.0380 o         1 MOL     -0.559960
     23 C9         -5.0760    1.5170    4.8050 c3        1 MOL     -0.149067
     24 C10        -3.7610    1.2430    5.5640 c3        1 MOL      0.085356
     25 C11        -2.6490    2.1930    5.1950 c3        1 MOL     -0.221936
     26 C12        -1.5940    2.0820    6.3060 c3        1 MOL      0.097840
     27 N3         -0.2810    2.5720    5.8340 n4        1 MOL     -0.377807
     28 H8         -3.2720    0.2980    2.5570 hn        1 MOL      0.158800
     29 H9         -4.1630    2.3760    3.1260 h1        1 MOL     -0.000366
     30 H10        -5.8510    0.7750    5.0220 hc        1 MOL      0.088933
     31 H11        -5.4220    2.4800    5.1780 hc        1 MOL      0.088933
     32 H12        -3.2860    0.2810    5.3450 hc        1 MOL      0.011310
     33 H13        -3.9510    1.2650    6.6390 hc        1 MOL      0.011310
     34 H14        -3.0270    3.2110    5.1510 hc        1 MOL      0.062713
     35 H15        -2.2830    1.9080    4.2120 hc        1 MOL      0.062713
     36 H16        -1.5140    1.0110    6.5110 hx        1 MOL      0.081983
     37 H17        -1.8050    2.6590    7.2100 hx        1 MOL      0.081983
     38 H18        -0.0490    2.0780    4.9850 hn        1 MOL      0.331966
     39 H19        -0.2900    3.5680    5.6450 hn        1 MOL      0.331966
     40 H20         0.4050    2.3180    6.5370 hn        1 MOL      0.331966
     41 N4         -6.0690    1.9530    1.1950 n         1 MOL     -0.308786
     42 C13        -7.1130    2.4340    0.2670 c3        1 MOL     -0.104095
     43 C14        -7.5990    1.3930   -0.7310 c         1 MOL      0.720811
     44 O6         -8.6850    1.5870   -1.2780 o         1 MOL     -0.590964
     45 C15        -6.7230    3.7230   -0.4360 c3        1 MOL     -0.425366
     46 C16        -5.3120    3.7180   -1.0850 c         1 MOL      0.652319
     47 O7         -4.5870    2.6920   -1.1480 o         1 MOL     -0.651383
     48 O8         -4.8940    4.8220   -1.5220 o         1 MOL     -0.651383
     49 H21        -5.3180    1.4200    0.7620 hn        1 MOL      0.145152
     50 H22        -8.0270    2.6950    0.7920 h1        1 MOL      0.146232
     51 H23        -6.6100    4.4700    0.3480 hc        1 MOL      0.162659
     52 H24        -7.4610    4.0370   -1.1710 hc        1 MOL      0.162659
     53 N5         -6.9160    0.2420   -0.9550 n         1 MOL     -0.575825
     54 C17        -7.4030   -0.8950   -1.7710 c3        1 MOL      0.199326
     55 C18        -8.0500   -1.9420   -0.8530 c         1 MOL      0.449682
     56 O9         -8.9580   -1.5960   -0.1630 o         1 MOL     -0.498487
     57 H25        -6.0440    0.1610   -0.4470 hn        1 MOL      0.356234
     58 H26        -6.5290   -1.2760   -2.2990 h1        1 MOL      0.041019
     59 H27        -8.1170   -0.5600   -2.5340 h1        1 MOL      0.041019
     60 N6         -7.7080   -3.1950   -0.8580 n         1 MOL     -0.476242
     61 C19        -6.3880   -3.7160   -1.3990 c3        1 MOL      0.164350
     62 C20        -5.7960   -4.7160   -0.4110 c         1 MOL      0.484316
     63 O10        -6.4650   -5.6310    0.0170 o         1 MOL     -0.517841
     64 C21        -6.5380   -4.3830   -2.7780 c3        1 MOL     -0.449355
     65 C22        -7.2760   -3.5270   -3.8290 c         1 MOL      0.623596
     66 N7         -8.3970   -3.9510   -4.3390 n         1 MOL     -0.722963
     67 O11        -6.8920   -2.4800   -4.3240 o         1 MOL     -0.551676
     68 H28        -8.3290   -3.7850   -0.3190 hn        1 MOL      0.328199
     69 H29        -5.6510   -2.9220   -1.4610 h1        1 MOL      0.079307
     70 H30        -7.1780   -5.2670   -2.7590 hc        1 MOL      0.148850
     71 H31        -5.6310   -4.8050   -3.2100 hc        1 MOL      0.148850
     72 H32        -8.7790   -4.8550   -4.1010 hn        1 MOL      0.351560
     73 H33        -8.8790   -3.3460   -4.9940 hn        1 MOL      0.351560
     74 N8         -4.5030   -4.6140   -0.1620 n         1 MOL     -0.348201
     75 C23        -3.4980   -3.9910   -1.0530 c3        1 MOL     -0.125465
     76 C24        -2.1390   -4.7590   -0.8760 c         1 MOL      0.765302
     77 O12        -2.1250   -5.9180   -0.5510 o         1 MOL     -0.579411
     78 H34        -4.1180   -5.2530    0.5210 hn        1 MOL      0.285404
     79 H35        -3.4450   -2.9180   -0.8730 h1        1 MOL      0.053132
     80 H36        -3.7610   -4.1880   -2.0890 h1        1 MOL      0.053132
     81 N9         -0.9690   -4.1560   -1.1870 n         1 MOL     -0.581073
     82 C25         0.3800   -4.6280   -1.1460 c3        1 MOL      0.229558
     83 C26         1.3420   -3.4480   -0.6820 c         1 MOL      0.526611
     84 O13         1.0230   -2.2700   -0.7630 o         1 MOL     -0.494868
     85 C27         0.6230   -5.3030   -2.5310 c3        1 MOL     -0.065862
     86 C28         1.6310   -6.3930   -2.3930 ca        1 MOL      0.069436
     87 C29         2.9110   -6.0480   -2.9300 ca        1 MOL     -0.182949
     88 C30         1.4620   -7.6660   -1.7390 ca        1 MOL     -0.182949
     89 C31         3.9870   -6.9380   -2.8140 ca        1 MOL     -0.241891
     90 C32         2.5080   -8.5730   -1.7540 ca        1 MOL     -0.241891
     91 C33         3.7420   -8.2040   -2.2660 ca        1 MOL      0.319525
     92 O14         4.7170   -9.1660   -2.2540 oh        1 MOL     -0.488795
     93 H37        -0.9510   -3.1730   -1.4210 hn        1 MOL      0.252736
     94 H38         0.4700   -5.2830   -0.2800 h1        1 MOL      0.032572
     95 H39         0.9610   -4.6180   -3.3130 hc        1 MOL      0.047624
     96 H40        -0.3190   -5.6310   -2.9670 hc        1 MOL      0.047624
     97 H41         3.1320   -5.0720   -3.3380 ha        1 MOL      0.140660
     98 H42         0.5160   -7.9430   -1.2780 ha        1 MOL      0.140660
     99 H43         4.9430   -6.7700   -3.2800 ha        1 MOL      0.149964
    100 H44         2.3380   -9.4360   -1.1330 ha        1 MOL      0.149964
    101 H45         4.2970   -9.9000   -1.7990 ho        1 MOL      0.352310
    102 N10         2.6080   -3.6860   -0.3430 n         1 MOL     -0.417548
    103 C34         3.6790   -2.6890   -0.1260 c3        1 MOL     -0.165439
    104 C35         3.8620   -1.6560   -1.2550 c         1 MOL      0.511261
    105 O15         3.5300   -1.8640   -2.4110 o         1 MOL     -0.494287
    106 C36         4.9600   -3.4070    0.2640 c3        1 MOL      0.051971
    107 C37         5.9150   -3.9350   -0.8090 c3        1 MOL     -0.014334
    108 C38         5.7920   -2.3590    1.1810 c3        1 MOL     -0.113278
    109 C39         7.0400   -4.9320   -0.4210 c3        1 MOL     -0.352379
    110 H46         2.8290   -4.6730   -0.2230 hn        1 MOL      0.230084
    111 H47         3.3570   -2.1780    0.7770 h1        1 MOL      0.146823
    112 H48         4.7920   -4.2680    0.8980 hc        1 MOL      0.072000
    113 H49         6.2210   -3.1200   -1.4630 hc        1 MOL      0.043366
    114 H50         5.2730   -4.6390   -1.3420 hc        1 MOL      0.043366
    115 H51         5.1660   -2.0930    2.0330 hc        1 MOL      0.032356
    116 H52         6.6210   -2.7800    1.7470 hc        1 MOL      0.032356
    117 H53         6.1690   -1.5250    0.6010 hc        1 MOL      0.032356
    118 H54         6.6540   -5.7970    0.1230 hc        1 MOL      0.094674
    119 H55         7.4920   -5.3020   -1.3450 hc        1 MOL      0.094674
    120 H56         7.7930   -4.5380    0.2710 hc        1 MOL      0.094674
    121 N11         4.2630   -0.4250   -0.8710 n         1 MOL     -0.271094
    122 C40         4.6710    0.5400   -1.8840 c3        1 MOL     -0.064541
    123 C41         4.7820    1.9180   -1.1700 c         1 MOL      0.542523
    124 O16         4.9640    1.9930    0.0660 o         1 MOL     -0.429098
    125 C42         6.0370    0.0880   -2.5380 c3        1 MOL     -0.053638
    126 O17         7.0900   -0.3240   -1.6370 oh        1 MOL     -0.365041
    127 H57         4.4050   -0.2040    0.1070 hn        1 MOL      0.190991
    128 H58         3.8600    0.6070   -2.6100 h1        1 MOL      0.115269
    129 H59         6.4530    0.9230   -3.0810 h1        1 MOL      0.066341
    130 H60         5.9070   -0.7190   -3.2730 h1        1 MOL      0.066341
    131 H61         7.8700   -0.6450   -2.1030 ho        1 MOL      0.367669
    132 N12         4.7140    3.0660   -1.7970 n         1 MOL     -0.472499
    133 C43         5.2960    4.3320   -1.2780 c3        1 MOL      0.105368
    134 C44         6.7950    4.2300   -1.0750 c         1 MOL      0.463923
    135 O18         7.3470    4.7220   -0.0800 o         1 MOL     -0.398304
    136 C45         4.4460    4.8850   -0.1450 c3        1 MOL     -0.177996
    137 H62         4.5100    3.0710   -2.7890 hn        1 MOL      0.258722
    138 H63         5.2070    5.0600   -2.0910 h1        1 MOL      0.053794
    139 H64         3.4090    5.0030   -0.4620 hc        1 MOL      0.055134
    140 H65         4.3840    4.2330    0.7210 hc        1 MOL      0.055134
    141 H66         4.7790    5.8840    0.1580 hc        1 MOL      0.055134
    142 N13         7.4520    3.5670   -2.0160 n         1 MOL     -0.478999
    143 C46         8.8320    3.0050   -2.0230 c3        1 MOL      0.128816
    144 C47         9.2610    2.6260   -0.6080 c         1 MOL      0.197776
    145 O19        10.1540    3.3370   -0.0120 o         1 MOL     -0.423704
    146 C48         9.7280    4.0650   -2.6960 c3        1 MOL     -0.404674
    147 H67         6.9930    3.2270   -2.8480 hn        1 MOL      0.276678
    148 H68         8.8080    2.1850   -2.7430 h1        1 MOL      0.070314
    149 H69         9.7980    5.0400   -2.2270 hc        1 MOL      0.122922
    150 H70        10.7940    3.8090   -2.6790 hc        1 MOL      0.122922
    151 H71         9.5770    4.2450   -3.7630 hc        1 MOL      0.122922
    152 N14         8.7070    1.5730    0.0070 n         1 MOL      0.030840
    153 C49         8.9350    1.2490    1.3900 c3        1 MOL     -0.205990
    154 C50        10.2290    0.5010    1.5300 c         1 MOL      0.367606
    155 O20        10.9240    0.7860    2.5460 o         1 MOL     -0.495070
    156 C51         7.8560    0.3900    1.9560 c3        1 MOL      0.685908
    157 C52         7.7420    0.7160    3.4680 c3        1 MOL     -0.311151
    158 C53         7.0960    2.0640    3.8060 c         1 MOL      0.771856
    159 O21         7.8250    3.0470    3.9960 o         1 MOL     -0.651981
    160 O22         5.8570    2.1410    4.0980 o         1 MOL     -0.651981
    161 H72         8.0030    1.0750   -0.5080 hn        1 MOL     -0.025252
    162 H73         8.9130    2.1860    1.9380 h1        1 MOL      0.202208
    163 H74         7.9000   -0.6820    1.7540 hc        1 MOL     -0.201440
    164 H75         6.9190    0.7730    1.5430 hc        1 MOL     -0.201440
    165 H76         8.7320    0.6200    3.9040 hc        1 MOL      0.024846
    166 H77         7.1070   -0.0720    3.8830 hc        1 MOL      0.024846
    167 N15        10.5900   -0.4260    0.6340 n         1 MOL     -0.210881
    168 C54        11.9100   -1.1020    0.6840 c3        1 MOL     -0.107821
    169 H78        12.4330   -0.8080    1.5950 h1        1 MOL      0.072138
    170 H79        11.7660   -2.1830    0.6810 h1        1 MOL      0.072138
    171 H80        12.5010   -0.8110   -0.1840 h1        1 MOL      0.072138
    172 H81        10.0130   -0.5770   -0.1840 hn        1 MOL      0.162280
    173 Ca1        -3.6540    6.8640   -2.0680 Ca        1 MOL      1.814216
    174 O23        -3.6450    9.2420   -3.3310 oh        1 MOL     -0.874674
    175 H82        -4.2720    9.9590   -3.4770 ho        1 MOL      0.408390
    176 H83        -2.8360    9.5450   -3.7410 ho        1 MOL      0.408390
    177 O24        -4.0900    7.1590    0.5440 oh        1 MOL     -0.874674
    178 H84        -4.7070    6.7690    1.1650 ho        1 MOL      0.408390
    179 H85        -3.2850    7.2700    1.0520 ho        1 MOL      0.408390
    180 O25        -1.5430    6.8250   -3.9770 oh        1 MOL     -0.874674
    181 H86        -1.2180    5.9300   -4.1200 ho        1 MOL      0.408390
    182 H87        -1.0300    7.3550   -4.5850 ho        1 MOL      0.408390
    183 O26        -6.1480    7.8450   -2.1210 oh        1 MOL     -0.874674
    184 H88        -7.0600    7.6550   -2.3170 ho        1 MOL      0.408390
    185 H89        -6.0030    8.7200   -2.4790 ho        1 MOL      0.408390
    186 O27        -4.7520    6.0930   -4.3200 oh        1 MOL     -0.874674
    187 H90        -5.0190    5.2810   -4.7590 ho        1 MOL      0.408390
    188 H91        -5.1110    6.7900   -4.8780 ho        1 MOL      0.408390
    189 O28        -1.8120    8.4450   -1.0240 oh        1 MOL     -0.874674
    190 H92        -1.6770    8.8840   -0.1830 ho        1 MOL      0.408390
    191 H93        -1.0060    8.6160   -1.5120 ho        1 MOL      0.408390
    192 O29        -1.7530    5.3060   -1.0220 oh        1 MOL     -0.874674
    193 H94        -0.8710    5.5770   -0.7560 ho        1 MOL      0.408390
    194 H95        -1.8070    4.3840   -0.7860 ho        1 MOL      0.408390
@<TRIPOS>BOND
     1    1    2 1   
     2    1    4 1   
     3    1    5 1   
     4    1    6 1   
     5    2    3 2   
     6    2    7 1   
     7    7    8 1   
     8    7   15 1   
     9    8    9 1   
    10    8   11 1   
    11    8   16 1   
    12    9   10 2   
    13    9   19 1   
    14   11   12 1   
    15   11   17 1   
    16   11   18 1   
    17   12   13 1   
    18   12   14 1   
    19   19   20 1   
    20   19   28 1   
    21   20   21 1   
    22   20   23 1   
    23   20   29 1   
    24   21   22 2   
    25   21   41 1   
    26   23   24 1   
    27   23   30 1   
    28   23   31 1   
    29   24   25 1   
    30   24   32 1   
    31   24   33 1   
    32   25   26 1   
    33   25   34 1   
    34   25   35 1   
    35   26   27 1   
    36   26   36 1   
    37   26   37 1   
    38   27   38 1   
    39   27   39 1   
    40   27   40 1   
    41   41   42 1   
    42   41   49 1   
    43   42   43 1   
    44   42   45 1   
    45   42   50 1   
    46   43   44 2   
    47   43   53 1   
    48   45   46 1   
    49   45   51 1   
    50   45   52 1   
    51   46   47 1   
    52   46   48 1   
    53   53   54 1   
    54   53   57 1   
    55   54   55 1   
    56   54   58 1   
    57   54   59 1   
    58   55   56 2   
    59   55   60 1   
    60   60   61 1   
    61   60   68 1   
    62   61   62 1   
    63   61   64 1   
    64   61   69 1   
    65   62   63 2   
    66   62   74 1   
    67   64   65 1   
    68   64   70 1   
    69   64   71 1   
    70   65   66 1   
    71   65   67 2   
    72   66   72 1   
    73   66   73 1   
    74   74   75 1   
    75   74   78 1   
    76   75   76 1   
    77   75   79 1   
    78   75   80 1   
    79   76   77 2   
    80   76   81 1   
    81   81   82 1   
    82   81   93 1   
    83   82   83 1   
    84   82   85 1   
    85   82   94 1   
    86   83   84 2   
    87   83  102 1   
    88   85   86 1   
    89   85   95 1   
    90   85   96 1   
    91   86   87 ar  
    92   86   88 ar  
    93   87   89 ar  
    94   87   97 1   
    95   88   90 ar  
    96   88   98 1   
    97   89   91 ar  
    98   89   99 1   
    99   90   91 ar  
   100   90  100 1   
   101   91   92 1   
   102   92  101 1   
   103  102  103 1   
   104  102  110 1   
   105  103  104 1   
   106  103  106 1   
   107  103  111 1   
   108  104  105 2   
   109  104  121 1   
   110  106  107 1   
   111  106  108 1   
   112  106  112 1   
   113  107  109 1   
   114  107  113 1   
   115  107  114 1   
   116  108  115 1   
   117  108  116 1   
   118  108  117 1   
   119  109  118 1   
   120  109  119 1   
   121  109  120 1   
   122  121  122 1   
   123  121  127 1   
   124  122  123 1   
   125  122  125 1   
   126  122  128 1   
   127  123  124 2   
   128  123  132 1   
   129  125  126 1   
   130  125  129 1   
   131  125  130 1   
   132  126  131 1   
   133  132  133 1   
   134  132  137 1   
   135  133  134 1   
   136  133  136 1   
   137  133  138 1   
   138  134  135 2   
   139  134  142 1   
   140  136  139 1   
   141  136  140 1   
   142  136  141 1   
   143  142  143 1   
   144  142  147 1   
   145  143  144 1   
   146  143  146 1   
   147  143  148 1   
   148  144  145 2   
   149  144  152 1   
   150  146  149 1   
   151  146  150 1   
   152  146  151 1   
   153  152  153 1   
   154  152  161 1   
   155  153  154 1   
   156  153  156 1   
   157  153  162 1   
   158  154  155 2   
   159  154  167 1   
   160  156  157 1   
   161  156  163 1   
   162  156  164 1   
   163  157  158 1   
   164  157  165 1   
   165  157  166 1   
   166  158  159 1   
   167  158  160 1   
   168  167  168 1   
   169  167  172 1   
   170  168  169 1   
   171  168  170 1   
   172  168  171 1   
   173  174  175 1   
   174  174  176 1   
   175  177  178 1   
   176  177  179 1   
   177  180  181 1   
   178  180  182 1   
   179  183  184 1   
   180  183  185 1   
   181  186  187 1   
   182  186  188 1   
   183  189  190 1   
   184  189  191 1   
   185  192  193 1   
   186  192  194 1   
@<TRIPOS>SUBSTRUCTURE
     1 MOL         1 TEMP              0 ****  ****    0 ROOT
