@<TRIPOS>MOLECULE
MOL
  192   187     1     0     0
SMALL
resp


@<TRIPOS>ATOM
      1 C1          3.2980   -7.4390   -1.8220 c3        1 MOL     -0.330274
      2 C2          3.4740   -6.0700   -1.0290 c         1 MOL      0.697834
      3 O1          3.2740   -6.0300    0.1730 o         1 MOL     -0.587263
      4 H1          2.5840   -8.0730   -1.2970 hc        1 MOL      0.086238
      5 H2          2.9290   -7.2330   -2.8270 hc        1 MOL      0.086238
      6 H3          4.2590   -7.9500   -1.8850 hc        1 MOL      0.086238
      7 N1          3.7650   -4.9320   -1.6670 n         1 MOL     -0.539915
      8 C3          3.8120   -3.5380   -1.0920 c3        1 MOL      0.109112
      9 C4          2.4560   -2.9130   -0.7880 c         1 MOL      0.391817
     10 O2          2.2590   -2.1290    0.1690 o         1 MOL     -0.464372
     11 C5          4.7510   -2.6210   -1.9660 c3        1 MOL     -0.138087
     12 C6          4.1870   -2.5470   -3.3950 c         1 MOL      0.671584
     13 O3          3.7180   -1.4310   -3.6830 o         1 MOL     -0.697172
     14 O4          4.2730   -3.5560   -4.1100 o         1 MOL     -0.697172
     15 H4          4.1220   -4.9460   -2.6090 hn        1 MOL      0.281167
     16 H5          4.3310   -3.4550   -0.1410 h1        1 MOL      0.050703
     17 H6          5.7380   -3.0720   -1.9670 hc        1 MOL      0.047585
     18 H7          4.8500   -1.6420   -1.4840 hc        1 MOL      0.047585
     19 N2          1.5100   -3.3050   -1.6150 n         1 MOL     -0.327110
     20 C7          0.1630   -2.7470   -1.4820 c3        1 MOL     -0.063847
     21 C8         -0.5510   -3.2780   -0.2360 c         1 MOL      0.538729
     22 O5         -0.5680   -4.4670    0.0760 o         1 MOL     -0.537333
     23 C9         -0.6410   -3.2170   -2.6920 c3        1 MOL      0.022098
     24 C10        -0.4760   -2.3450   -3.9590 c3        1 MOL     -0.022777
     25 C11        -1.3010   -2.9840   -5.1200 c3        1 MOL      0.018643
     26 C12        -1.2290   -2.0090   -6.3510 c3        1 MOL     -0.105015
     27 N3          0.1370   -1.9750   -6.8700 n4        1 MOL     -0.251099
     28 H8          1.7460   -4.0030   -2.3100 hn        1 MOL      0.261870
     29 H9          0.2100   -1.6600   -1.4310 h1        1 MOL      0.212881
     30 H10        -1.6840   -3.0660   -2.4350 hc        1 MOL      0.037189
     31 H11        -0.4820   -4.2800   -2.8770 hc        1 MOL      0.037189
     32 H12         0.5920   -2.2950   -4.1660 hc        1 MOL     -0.001527
     33 H13        -0.8220   -1.3380   -3.7340 hc        1 MOL     -0.001527
     34 H14        -2.3370   -3.1190   -4.8080 hc        1 MOL      0.033590
     35 H15        -0.9310   -3.9730   -5.4000 hc        1 MOL      0.033590
     36 H16        -1.4640   -1.0220   -5.9320 hx        1 MOL      0.124494
     37 H17        -1.8630   -2.1910   -7.2140 hx        1 MOL      0.124494
     38 H18         0.2490   -1.2490   -7.5650 hn        1 MOL      0.294776
     39 H19         0.8740   -1.9030   -6.1840 hn        1 MOL      0.294776
     40 H20         0.3540   -2.8340   -7.3670 hn        1 MOL      0.294776
     41 N4         -1.2450   -2.4460    0.6120 n         1 MOL     -0.575263
     42 C13        -1.5990   -1.0030    0.5170 c3        1 MOL     -0.050243
     43 C14        -2.0350   -0.4790   -0.9080 c         1 MOL      0.504739
     44 O6         -1.3190    0.2680   -1.5230 o         1 MOL     -0.544120
     45 C15        -0.5450   -0.1370    1.2210 c3        1 MOL     -0.067002
     46 C16        -0.2790   -0.5010    2.6390 c         1 MOL      0.535452
     47 O7         -1.0190   -1.3350    3.2440 o         1 MOL     -0.649806
     48 O8          0.7240   -0.0530    3.2460 o         1 MOL     -0.649806
     49 H21        -1.5980   -2.8990    1.4460 hn        1 MOL      0.312292
     50 H22        -2.5210   -0.8980    1.0860 h1        1 MOL      0.100207
     51 H23        -0.8540    0.9130    1.2170 hc        1 MOL      0.035442
     52 H24         0.3860   -0.1260    0.6570 hc        1 MOL      0.035442
     53 N5         -3.1230   -0.9430   -1.4600 n         1 MOL     -0.189607
     54 C17        -4.1700   -1.9210   -0.9800 c3        1 MOL     -0.029209
     55 C18        -5.0890   -2.4820   -2.0670 c         1 MOL      0.423222
     56 O9         -4.8060   -2.4780   -3.2770 o         1 MOL     -0.526014
     57 H25        -3.0340   -0.6830   -2.4380 hn        1 MOL      0.194995
     58 H26        -4.8580   -1.3740   -0.3350 h1        1 MOL      0.065137
     59 H27        -3.7750   -2.7290   -0.3650 h1        1 MOL      0.065137
     60 N6         -6.2940   -2.9060   -1.6570 n         1 MOL     -0.350099
     61 C19        -6.8790   -2.9080   -0.3060 c3        1 MOL      0.023152
     62 C20        -7.4270   -1.4990    0.2220 c         1 MOL      0.683312
     63 O10        -7.5800   -0.5270   -0.5000 o         1 MOL     -0.491796
     64 C21        -7.9750   -4.0250   -0.2350 c3        1 MOL     -0.353358
     65 C22        -9.0140   -3.8230   -1.3130 c         1 MOL      0.756506
     66 O11       -10.2180   -3.7300   -1.0270 o         1 MOL     -0.694345
     67 O12        -8.7250   -3.7260   -2.5230 o         1 MOL     -0.694345
     68 H28        -6.8700   -3.2710   -2.4110 hn        1 MOL      0.265128
     69 H29        -6.0880   -3.1130    0.4190 h1        1 MOL      0.002303
     70 H30        -8.4750   -4.0980    0.7250 hc        1 MOL      0.079356
     71 H31        -7.6480   -5.0540   -0.3170 hc        1 MOL      0.079356
     72 N7         -7.7330   -1.4350    1.5510 n         1 MOL     -0.464380
     73 C23        -8.4130   -0.2710    2.0920 c3        1 MOL     -0.307589
     74 C24        -7.5930    1.0920    2.1140 c         1 MOL      0.451578
     75 O13        -8.2770    2.0840    2.2120 o         1 MOL     -0.534455
     76 H32        -7.5820   -2.2660    2.1030 hn        1 MOL      0.294096
     77 H33        -8.6930   -0.4880    3.1210 h1        1 MOL      0.175400
     78 H34        -9.2960   -0.0780    1.4780 h1        1 MOL      0.175400
     79 N8         -6.2940    1.0600    2.0860 n         1 MOL     -0.181641
     80 C25        -5.3160    2.1850    2.0070 c3        1 MOL      0.218570
     81 C26        -4.5530    2.0040    0.6660 c         1 MOL      0.338626
     82 O14        -4.3990    0.8840    0.2200 o         1 MOL     -0.359198
     83 C27        -4.3860    2.3170    3.2340 c3        1 MOL      0.066193
     84 C28        -3.7710    1.0050    3.7140 c3        1 MOL     -0.266230
     85 O15        -5.2140    2.8250    4.2650 oh        1 MOL     -0.595641
     86 H35        -5.8820    0.1360    2.0990 hn        1 MOL      0.145902
     87 H36        -5.8630    3.1210    1.9620 h1        1 MOL      0.066208
     88 H37        -3.5760    3.0110    3.0360 h1        1 MOL      0.082220
     89 H38        -4.6490    2.7520    5.0360 ho        1 MOL      0.395404
     90 H39        -4.4470    0.2290    4.0790 hc        1 MOL      0.076532
     91 H40        -3.2410    0.6270    2.8340 hc        1 MOL      0.076532
     92 H41        -3.0280    1.1610    4.4940 hc        1 MOL      0.076532
     93 N9         -4.0730    3.1260    0.0950 n         1 MOL     -0.471028
     94 C29        -3.7980    3.3820   -1.3530 c3        1 MOL      0.001658
     95 C30        -2.3370    3.6800   -1.5550 c         1 MOL      0.302459
     96 O16        -1.8350    3.6200   -2.6390 o         1 MOL     -0.483588
     97 C31        -4.7080    4.4980   -1.9600 c3        1 MOL      0.167270
     98 C32        -4.4120    5.8760   -1.3740 c3        1 MOL      0.327206
     99 C33        -6.1550    4.1030   -1.7470 c3        1 MOL     -0.147106
    100 C34        -4.0980    6.7960   -2.5700 c3        1 MOL     -0.404261
    101 H42        -4.2080    4.0050    0.5650 hn        1 MOL      0.235245
    102 H43        -3.9760    2.4620   -1.9220 h1        1 MOL      0.097107
    103 H44        -4.5730    4.4700   -3.0420 hc        1 MOL      0.005977
    104 H45        -3.6010    5.9550   -0.6440 hc        1 MOL     -0.085862
    105 H46        -5.2760    6.2010   -0.7890 hc        1 MOL     -0.085862
    106 H47        -6.3030    3.0980   -2.1400 hc        1 MOL      0.038508
    107 H48        -6.3920    4.0910   -0.6810 hc        1 MOL      0.038508
    108 H49        -6.7530    4.8490   -2.2530 hc        1 MOL      0.038508
    109 H50        -3.2720    6.4460   -3.1860 hc        1 MOL      0.087088
    110 H51        -4.9870    6.7390   -3.1970 hc        1 MOL      0.087088
    111 H52        -4.0970    7.8120   -2.1600 hc        1 MOL      0.087088
    112 N10        -1.6780    4.1500   -0.4350 n         1 MOL     -0.042132
    113 C35        -0.4130    4.9070   -0.4740 c3        1 MOL     -0.009102
    114 C36         0.9230    4.1560   -0.8270 c         1 MOL      0.318812
    115 O17         1.7480    4.7360   -1.5420 o         1 MOL     -0.572674
    116 C37        -0.1860    5.4310    0.9450 c3        1 MOL      0.107920
    117 C38        -0.0120    4.4860    2.1890 c3        1 MOL     -0.033620
    118 O18        -1.2570    6.3470    1.2660 oh        1 MOL     -0.606683
    119 H53        -2.1630    4.1980    0.4520 hn        1 MOL      0.185728
    120 H54        -0.5210    5.7760   -1.1090 h1        1 MOL      0.068827
    121 H55         0.7070    6.0390    1.1020 h1        1 MOL      0.057064
    122 H56        -1.0510    7.1520    0.7830 ho        1 MOL      0.382921
    123 H57        -0.7350    3.6740    2.1360 hc        1 MOL      0.031475
    124 H58         0.9880    4.0690    2.0510 hc        1 MOL      0.031475
    125 H59        -0.1220    4.9510    3.1780 hc        1 MOL      0.031475
    126 N11         1.0320    2.8660   -0.5690 n         1 MOL      0.096118
    127 C39         2.3460    2.1830   -0.7440 c3        1 MOL     -0.033961
    128 C40         3.5790    2.7160    0.0340 c         1 MOL      0.469617
    129 O19         3.4890    3.7360    0.6820 o         1 MOL     -0.534682
    130 C41         2.6790    1.9590   -2.1710 c3        1 MOL      0.269363
    131 C42         1.5230    1.3260   -2.9520 c3        1 MOL     -0.177482
    132 O20         3.7770    1.0480   -2.3530 oh        1 MOL     -0.651253
    133 H60         0.2350    2.3360   -0.2700 hn        1 MOL     -0.034202
    134 H61         2.1140    1.1510   -0.4730 h1        1 MOL      0.051162
    135 H62         3.0410    2.8860   -2.6100 h1        1 MOL      0.035241
    136 H63         3.5230    0.2540   -2.8280 ho        1 MOL      0.392866
    137 H64         1.7230    1.3730   -4.0190 hc        1 MOL      0.048002
    138 H65         1.2520    0.3220   -2.6310 hc        1 MOL      0.048002
    139 H66         0.6020    1.9130   -2.9050 hc        1 MOL      0.048002
    140 N12         4.7480    2.0870   -0.0930 n         1 MOL     -0.431880
    141 C43         6.0330    2.4410    0.5220 c3        1 MOL      0.174056
    142 C44         6.7350    1.2950    1.1840 c         1 MOL      0.393232
    143 O21         7.9490    1.4130    1.3890 o         1 MOL     -0.542154
    144 C45         6.9180    3.0750   -0.4980 c3        1 MOL     -0.167961
    145 C46         6.2910    4.2190   -1.2370 c3        1 MOL      0.253861
    146 C47         7.1870    4.8180   -2.3170 c3        1 MOL     -0.103714
    147 C48         6.3820    5.6810   -3.2600 c3        1 MOL     -0.020204
    148 N13         5.7160    6.8340   -2.5740 n4        1 MOL     -0.343685
    149 H67         4.7310    1.3380   -0.7790 hn        1 MOL      0.272796
    150 H68         5.9460    3.1530    1.3480 h1        1 MOL      0.084147
    151 H69         7.1370    2.3370   -1.2630 hc        1 MOL      0.047270
    152 H70         7.8700    3.3490   -0.0250 hc        1 MOL      0.047270
    153 H71         6.1090    4.9030   -0.4130 hc        1 MOL     -0.043259
    154 H72         5.3550    3.9590   -1.7310 hc        1 MOL     -0.043259
    155 H73         7.6400    4.0300   -2.9190 hc        1 MOL      0.049465
    156 H74         7.9780    5.4120   -1.8710 hc        1 MOL      0.049465
    157 H75         5.5780    5.0520   -3.6400 hx        1 MOL      0.106311
    158 H76         7.0960    5.9220   -4.0440 hx        1 MOL      0.106311
    159 H77         6.3440    7.3380   -1.9540 hn        1 MOL      0.324534
    160 H78         5.3200    7.4680   -3.2590 hn        1 MOL      0.324534
    161 H79         5.0120    6.4210   -1.9800 hn        1 MOL      0.324534
    162 N14         6.0770    0.1720    1.4960 n         1 MOL     -0.258252
    163 C49         6.7460   -1.0210    2.0870 c3        1 MOL     -0.037400
    164 C50         7.4050   -1.8790    0.9230 c         1 MOL      0.428372
    165 O22         6.8440   -2.8610    0.5480 o         1 MOL     -0.445646
    166 C51         5.7260   -1.7910    2.8950 c3        1 MOL      0.059680
    167 C52         5.3740   -0.9300    4.1120 c3        1 MOL      0.247712
    168 C53         4.0540   -1.2960    4.8240 c         1 MOL      0.602685
    169 O23         3.6810   -2.5130    4.8590 o         1 MOL     -0.789445
    170 O24         3.2440   -0.3870    5.1280 o         1 MOL     -0.789445
    171 H80         5.0840    0.0930    1.3370 hn        1 MOL      0.219926
    172 H81         7.4980   -0.7140    2.8120 h1        1 MOL      0.032204
    173 H82         6.1030   -2.7340    3.2840 hc        1 MOL      0.006206
    174 H83         4.8920   -2.0550    2.2430 hc        1 MOL      0.006206
    175 H84         5.4410    0.1260    3.8680 hc        1 MOL     -0.060513
    176 H85         6.1920   -1.1010    4.8230 hc        1 MOL     -0.060513
    177 N15         8.6240   -1.5970    0.5490 n         1 MOL     -0.283150
    178 C54         9.4800   -2.3900   -0.4110 c3        1 MOL     -0.222453
    179 H86        10.3720   -1.8160   -0.6600 h1        1 MOL      0.111200
    180 H87         9.7730   -3.3310    0.0550 h1        1 MOL      0.111200
    181 H88         8.9140   -2.5940   -1.3200 h1        1 MOL      0.111200
    182 H89         9.0240   -0.6980    0.7900 hn        1 MOL      0.250682
    183 Ca1         1.0350   -2.0330    5.0550 Ca        1 MOL      1.789826
    184 O25         0.5770    0.0100    6.5670 oh        1 MOL     -0.927809
    185 H90         0.2930    0.8580    6.2480 ho        1 MOL      0.455044
    186 H91         0.9570    0.2040    7.4260 ho        1 MOL      0.455044
    187 O26        -1.4640   -2.5170    6.1030 oh        1 MOL     -0.927809
    188 H92        -2.0100   -3.3010    6.0840 ho        1 MOL      0.455044
    189 H93        -2.0170   -1.8500    6.5040 ho        1 MOL      0.455044
    190 O27         1.6560   -3.0810    2.5650 oh        1 MOL     -0.927809
    191 H94         1.9730   -2.7510    1.7160 ho        1 MOL      0.455044
    192 H95         1.4850   -4.0080    2.3980 ho        1 MOL      0.455044
@<TRIPOS>BOND
     1    1    2 1   
     2    1    4 1   
     3    1    5 1   
     4    1    6 1   
     5    2    3 2   
     6    2    7 1   
     7    7    8 1   
     8    7   15 1   
     9    8    9 1   
    10    8   11 1   
    11    8   16 1   
    12    9   10 2   
    13    9   19 1   
    14   11   12 1   
    15   11   17 1   
    16   11   18 1   
    17   12   13 1   
    18   12   14 1   
    19   19   20 1   
    20   19   28 1   
    21   20   21 1   
    22   20   23 1   
    23   20   29 1   
    24   21   22 2   
    25   21   41 1   
    26   23   24 1   
    27   23   30 1   
    28   23   31 1   
    29   24   25 1   
    30   24   32 1   
    31   24   33 1   
    32   25   26 1   
    33   25   34 1   
    34   25   35 1   
    35   26   27 1   
    36   26   36 1   
    37   26   37 1   
    38   27   38 1   
    39   27   39 1   
    40   27   40 1   
    41   41   42 1   
    42   41   49 1   
    43   42   43 1   
    44   42   45 1   
    45   42   50 1   
    46   43   44 2   
    47   43   53 1   
    48   45   46 1   
    49   45   51 1   
    50   45   52 1   
    51   46   47 1   
    52   46   48 1   
    53   53   54 1   
    54   53   57 1   
    55   54   55 1   
    56   54   58 1   
    57   54   59 1   
    58   55   56 2   
    59   55   60 1   
    60   60   61 1   
    61   60   68 1   
    62   61   62 1   
    63   61   64 1   
    64   61   69 1   
    65   62   63 2   
    66   62   72 1   
    67   64   65 1   
    68   64   70 1   
    69   64   71 1   
    70   65   66 1   
    71   65   67 1   
    72   72   73 1   
    73   72   76 1   
    74   73   74 1   
    75   73   77 1   
    76   73   78 1   
    77   74   75 2   
    78   74   79 1   
    79   79   80 1   
    80   79   86 1   
    81   80   81 1   
    82   80   83 1   
    83   80   87 1   
    84   81   82 2   
    85   81   93 1   
    86   83   84 1   
    87   83   85 1   
    88   83   88 1   
    89   84   90 1   
    90   84   91 1   
    91   84   92 1   
    92   85   89 1   
    93   93   94 1   
    94   93  101 1   
    95   94   95 1   
    96   94   97 1   
    97   94  102 1   
    98   95   96 2   
    99   95  112 1   
   100   97   98 1   
   101   97   99 1   
   102   97  103 1   
   103   98  100 1   
   104   98  104 1   
   105   98  105 1   
   106   99  106 1   
   107   99  107 1   
   108   99  108 1   
   109  100  109 1   
   110  100  110 1   
   111  100  111 1   
   112  112  113 1   
   113  112  119 1   
   114  113  114 1   
   115  113  116 1   
   116  113  120 1   
   117  114  115 2   
   118  114  126 1   
   119  116  117 1   
   120  116  118 1   
   121  116  121 1   
   122  117  123 1   
   123  117  124 1   
   124  117  125 1   
   125  118  122 1   
   126  126  127 1   
   127  126  133 1   
   128  127  128 1   
   129  127  130 1   
   130  127  134 1   
   131  128  129 2   
   132  128  140 1   
   133  130  131 1   
   134  130  132 1   
   135  130  135 1   
   136  131  137 1   
   137  131  138 1   
   138  131  139 1   
   139  132  136 1   
   140  140  141 1   
   141  140  149 1   
   142  141  142 1   
   143  141  144 1   
   144  141  150 1   
   145  142  143 2   
   146  142  162 1   
   147  144  145 1   
   148  144  151 1   
   149  144  152 1   
   150  145  146 1   
   151  145  153 1   
   152  145  154 1   
   153  146  147 1   
   154  146  155 1   
   155  146  156 1   
   156  147  148 1   
   157  147  157 1   
   158  147  158 1   
   159  148  159 1   
   160  148  160 1   
   161  148  161 1   
   162  162  163 1   
   163  162  171 1   
   164  163  164 1   
   165  163  166 1   
   166  163  172 1   
   167  164  165 2   
   168  164  177 1   
   169  166  167 1   
   170  166  173 1   
   171  166  174 1   
   172  167  168 1   
   173  167  175 1   
   174  167  176 1   
   175  168  169 1   
   176  168  170 1   
   177  177  178 1   
   178  177  182 1   
   179  178  179 1   
   180  178  180 1   
   181  178  181 1   
   182  184  185 1   
   183  184  186 1   
   184  187  188 1   
   185  187  189 1   
   186  190  191 1   
   187  190  192 1   
@<TRIPOS>SUBSTRUCTURE
     1 MOL         1 TEMP              0 ****  ****    0 ROOT
