@<TRIPOS>MOLECULE
MOL
  189   185     1     0     0
SMALL
resp


@<TRIPOS>ATOM
      1 C1          9.2800    2.2880    1.0820 c3        1 MOL     -0.652957
      2 C2          8.2970    1.3260    0.4750 c         1 MOL      0.860805
      3 O1          7.3820    0.8670    1.2020 o         1 MOL     -0.730713
      4 H1          9.2120    2.2380    2.1690 hc        1 MOL      0.171789
      5 H2         10.2900    2.0210    0.7690 hc        1 MOL      0.171789
      6 H3          9.0510    3.3000    0.7500 hc        1 MOL      0.171789
      7 N1          8.4450    0.9360   -0.7840 n         1 MOL     -0.752551
      8 C3          7.3610    0.3420   -1.6570 c3        1 MOL      0.156922
      9 C4          7.0880   -1.1150   -1.5050 c         1 MOL      0.462575
     10 O2          7.1460   -1.9390   -2.3860 o         1 MOL     -0.456500
     11 C5          7.4290    0.8510   -3.0560 c3        1 MOL     -0.192672
     12 C6          8.6240    0.5610   -3.9440 c         1 MOL      0.661607
     13 O3          8.5510    1.0440   -5.1060 o         1 MOL     -0.640043
     14 O4          9.5450   -0.1930   -3.5520 o         1 MOL     -0.640043
     15 H4          9.2010    1.3820   -1.2770 hn        1 MOL      0.358818
     16 H5          6.4380    0.8040   -1.3020 h1        1 MOL      0.076200
     17 H6          7.4900    1.9430   -2.9640 hc        1 MOL      0.063980
     18 H7          6.4820    0.6820   -3.5490 hc        1 MOL      0.063980
     19 N2          6.9940   -1.4890   -0.2130 n         1 MOL     -0.238191
     20 C7          6.6690   -2.8760    0.1660 c3        1 MOL     -0.042851
     21 C8          5.2360   -3.4610    0.1350 c         1 MOL      0.486397
     22 O5          5.0310   -4.6770   -0.0940 o         1 MOL     -0.534024
     23 C9          7.3620   -3.1540    1.4830 c3        1 MOL      0.120583
     24 C10         8.8680   -3.0000    1.5670 c3        1 MOL     -0.170046
     25 C11         9.3560   -3.4990    2.9290 c3        1 MOL      0.085612
     26 C12        10.8800   -3.4780    2.9270 c3        1 MOL      0.028905
     27 N3         11.5110   -3.8950    4.1680 n4        1 MOL     -0.209338
     28 H8          7.0220   -0.7490    0.4680 hn        1 MOL      0.281995
     29 H9          7.2360   -3.4700   -0.5490 h1        1 MOL      0.088259
     30 H10         7.1370   -4.2040    1.6770 hc        1 MOL     -0.021014
     31 H11         6.9220   -2.6620    2.3590 hc        1 MOL     -0.021014
     32 H12         9.0930   -1.9530    1.3900 hc        1 MOL      0.051992
     33 H13         9.2570   -3.5730    0.7280 hc        1 MOL      0.051992
     34 H14         8.9610   -4.4870    3.1540 hc        1 MOL      0.009954
     35 H15         8.9770   -2.9010    3.7550 hc        1 MOL      0.009954
     36 H16        11.2180   -2.4670    2.7180 hx        1 MOL      0.069516
     37 H17        11.2810   -4.1540    2.1730 hx        1 MOL      0.069516
     38 H18        11.3550   -3.3030    4.9740 hn        1 MOL      0.234172
     39 H19        11.2180   -4.8460    4.3600 hn        1 MOL      0.234172
     40 H20        12.5160   -3.8750    4.0820 hn        1 MOL      0.234172
     41 N4          4.1740   -2.7180    0.4420 n         1 MOL     -0.366480
     42 C13         4.0310   -1.3500    1.0640 c3        1 MOL      0.043362
     43 C14         3.9600   -0.1310    0.0530 c         1 MOL      0.128429
     44 O6          3.7790   -0.3260   -1.1520 o         1 MOL     -0.445202
     45 C15         2.8470   -1.3130    1.9890 c3        1 MOL     -0.225080
     46 C16         1.5040   -1.8200    1.4310 c         1 MOL      0.766388
     47 O7          0.7330   -0.9870    0.8350 o         1 MOL     -0.660966
     48 O8          1.2500   -2.9940    1.6760 o         1 MOL     -0.660966
     49 H21         3.2620   -3.1470    0.4560 hn        1 MOL      0.310300
     50 H22         4.9410   -1.2560    1.6540 h1        1 MOL      0.096181
     51 H23         2.6730   -0.2890    2.3110 hc        1 MOL      0.023385
     52 H24         3.1300   -1.8970    2.8690 hc        1 MOL      0.023385
     53 N5          4.1060    1.1250    0.4670 n         1 MOL     -0.101276
     54 C17         3.9970    2.3240   -0.3710 c3        1 MOL     -0.133879
     55 C18         2.6150    2.4990   -0.9370 c         1 MOL      0.681372
     56 O9          1.7090    1.8110   -0.4760 o         1 MOL     -0.629136
     57 H25         4.2530    1.3020    1.4510 hn        1 MOL      0.261336
     58 H26         4.6780    2.2510   -1.2280 h1        1 MOL      0.067071
     59 H27         4.2170    3.1730    0.2720 h1        1 MOL      0.067071
     60 N6          2.3130    3.5390   -1.7070 n         1 MOL     -0.442665
     61 C19         1.0760    4.2190   -2.2480 c3        1 MOL      0.045700
     62 C20         1.3860    5.7290   -2.5600 c         1 MOL      0.485460
     63 O10         2.5220    6.1380   -2.4570 o         1 MOL     -0.508379
     64 C21         0.7780    3.4750   -3.5640 c3        1 MOL     -0.391219
     65 C22         0.5120    2.0070   -3.4610 c         1 MOL      0.873087
     66 O11        -0.6370    1.5230   -3.0320 o         1 MOL     -0.756786
     67 O12         1.4240    1.2740   -3.7830 o         1 MOL     -0.756786
     68 H28         3.1330    4.0490   -2.0040 hn        1 MOL      0.271238
     69 H29         0.2600    4.1130   -1.5380 h1        1 MOL      0.127752
     70 H30         1.6290    3.5660   -4.2470 hc        1 MOL      0.118517
     71 H31        -0.0700    3.9640   -4.0350 hc        1 MOL      0.118517
     72 N7          0.4330    6.6660   -2.8330 n         1 MOL     -0.398415
     73 C23        -1.0440    6.4690   -2.6550 c3        1 MOL     -0.183975
     74 C24        -1.4840    6.1380   -1.2520 c         1 MOL      0.685509
     75 O13        -1.0450    6.7540   -0.2750 o         1 MOL     -0.544116
     76 H32         0.7770    7.5990   -2.9750 hn        1 MOL      0.323064
     77 H33        -1.2920    5.6520   -3.3270 h1        1 MOL      0.099161
     78 H34        -1.5320    7.4070   -2.9200 h1        1 MOL      0.099161
     79 N8         -2.3570    5.1550   -1.1040 n         1 MOL     -0.747573
     80 C25        -2.8330    4.7580    0.2740 c3        1 MOL      0.110256
     81 C26        -1.9650    3.6530    0.8430 c         1 MOL      0.846540
     82 O14        -1.3640    2.8120    0.1480 o         1 MOL     -0.724743
     83 C27        -4.3160    4.3350    0.0940 c3        1 MOL      0.635512
     84 C28        -5.1630    4.8030    1.2920 c3        1 MOL     -0.504304
     85 O15        -4.3460    2.9380   -0.1210 oh        1 MOL     -0.804198
     86 H35        -2.7100    4.8400   -1.9910 hn        1 MOL      0.349702
     87 H36        -2.7620    5.6330    0.9300 h1        1 MOL      0.029005
     88 H37        -4.7230    4.8880   -0.7630 h1        1 MOL     -0.032626
     89 H38        -5.2760    2.7710   -0.2600 ho        1 MOL      0.386252
     90 H39        -6.0710    4.2120    1.2080 hc        1 MOL      0.117267
     91 H40        -4.6360    4.6740    2.2280 hc        1 MOL      0.117267
     92 H41        -5.3360    5.8460    1.0230 hc        1 MOL      0.117267
     93 N9         -1.8750    3.6070    2.1590 n         1 MOL     -0.612702
     94 C29        -1.1780    2.6260    2.9310 c3        1 MOL      0.175752
     95 C30        -1.7310    1.1230    2.7820 c         1 MOL      0.469043
     96 O16        -1.9090    0.6650    1.6530 o         1 MOL     -0.531132
     97 C31         0.3720    2.6780    2.6530 c3        1 MOL      0.155836
     98 C32         1.0270    4.0670    2.6480 c3        1 MOL     -0.175358
     99 C33         1.1740    1.7920    3.6730 c3        1 MOL     -0.660786
    100 C34         0.6470    4.8510    3.9540 c3        1 MOL      0.078719
    101 H42        -2.2980    4.3880    2.6340 hn        1 MOL      0.293144
    102 H43        -1.3350    2.9070    3.9680 h1        1 MOL      0.029497
    103 H44         0.4450    2.1650    1.6870 hc        1 MOL      0.042835
    104 H45         0.5530    4.6150    1.8390 hc        1 MOL      0.060468
    105 H46         2.0870    3.9860    2.4170 hc        1 MOL      0.060468
    106 H47         1.0600    2.0840    4.7240 hc        1 MOL      0.174110
    107 H48         0.8070    0.7690    3.5970 hc        1 MOL      0.174110
    108 H49         2.2230    1.7700    3.3950 hc        1 MOL      0.174110
    109 H50         0.9810    4.4550    4.9140 hc        1 MOL     -0.012275
    110 H51         0.8710    5.9140    3.9460 hc        1 MOL     -0.012275
    111 H52        -0.4410    4.8250    4.0810 hc        1 MOL     -0.012275
    112 N10        -1.9410    0.3560    3.8820 n         1 MOL     -0.553183
    113 C35        -2.4950   -1.0260    3.7100 c3        1 MOL     -0.146331
    114 C36        -3.8630   -1.2220    3.0450 c         1 MOL      0.543963
    115 O17        -4.3020   -2.3660    2.8680 o         1 MOL     -0.535435
    116 C37        -2.6730   -1.6610    5.1140 c3        1 MOL      0.495819
    117 C38        -3.7340   -0.9920    6.1020 c3        1 MOL     -0.276783
    118 O18        -1.3550   -1.6090    5.8450 oh        1 MOL     -0.643940
    119 H53        -1.6210    0.7250    4.7620 hn        1 MOL      0.323138
    120 H54        -1.7860   -1.6970    3.2260 h1        1 MOL      0.128000
    121 H55        -2.9190   -2.7140    4.9840 h1        1 MOL     -0.016299
    122 H56        -0.7030   -1.7980    5.1710 ho        1 MOL      0.391258
    123 H57        -3.5570    0.0830    6.2140 hc        1 MOL      0.075298
    124 H58        -4.6910   -1.1470    5.6010 hc        1 MOL      0.075298
    125 H59        -3.6660   -1.5010    7.0640 hc        1 MOL      0.075298
    126 N11        -4.6100   -0.1890    2.6960 n         1 MOL     -0.275027
    127 C39        -6.0040   -0.3790    2.2320 c3        1 MOL     -0.167274
    128 C40        -6.0760   -0.8470    0.7990 c         1 MOL      0.582105
    129 O19        -5.5890   -0.1910   -0.1250 o         1 MOL     -0.607394
    130 C41        -6.7560    0.9900    2.1640 c3        1 MOL      0.336641
    131 C42        -8.2180    0.9530    1.7200 c3        1 MOL     -0.537152
    132 O20        -6.8410    1.4830    3.4320 oh        1 MOL     -0.560490
    133 H60        -4.2910    0.7640    2.8000 hn        1 MOL      0.238314
    134 H61        -6.5800   -1.0620    2.8690 h1        1 MOL      0.129602
    135 H62        -6.1780    1.7320    1.6270 h1        1 MOL      0.059322
    136 H63        -6.0250    1.9880    3.5470 ho        1 MOL      0.345959
    137 H64        -8.8120    0.3330    2.3940 hc        1 MOL      0.151175
    138 H65        -8.5210    1.9920    1.8050 hc        1 MOL      0.151175
    139 H66        -8.4000    0.6190    0.6930 hc        1 MOL      0.151175
    140 N12        -6.6380   -2.0110    0.5250 n         1 MOL     -0.376085
    141 C43        -6.7180   -2.7310   -0.7530 c3        1 MOL      0.211459
    142 C44        -5.4710   -2.7560   -1.6160 c         1 MOL      0.465355
    143 O21        -5.4070   -2.2240   -2.7400 o         1 MOL     -0.513639
    144 C45        -8.0480   -2.3970   -1.5230 c3        1 MOL     -0.523033
    145 C46        -9.3390   -2.5540   -0.6900 c3        1 MOL      0.370864
    146 C47       -10.6020   -2.2030   -1.4630 c3        1 MOL     -0.129257
    147 C48       -10.6910   -0.8290   -2.0710 c3        1 MOL      0.080922
    148 N13       -12.0520   -0.6840   -2.6910 n4        1 MOL     -0.059967
    149 H67        -7.0580   -2.5040    1.3060 hn        1 MOL      0.224951
    150 H68        -6.7340   -3.8030   -0.5180 h1        1 MOL      0.024982
    151 H69        -8.1100   -3.0440   -2.3970 hc        1 MOL      0.160363
    152 H70        -8.0120   -1.3640   -1.8720 hc        1 MOL      0.160363
    153 H71        -9.3040   -1.7560    0.0620 hc        1 MOL     -0.061742
    154 H72        -9.4640   -3.5120   -0.2010 hc        1 MOL     -0.061742
    155 H73       -11.3930   -2.4030   -0.7370 hc        1 MOL      0.036475
    156 H74       -10.7020   -2.9460   -2.2500 hc        1 MOL      0.036475
    157 H75        -9.9550   -0.8100   -2.8800 hx        1 MOL      0.043528
    158 H76       -10.4520   -0.0710   -1.3290 hx        1 MOL      0.043528
    159 H77       -12.6800   -0.5560   -1.9170 hn        1 MOL      0.159033
    160 H78       -12.1630    0.1980   -3.1930 hn        1 MOL      0.159033
    161 H79       -12.4000   -1.4550   -3.2350 hn        1 MOL      0.159033
    162 N14        -4.3570   -3.2780   -1.0070 n         1 MOL     -0.420058
    163 C49        -3.0570   -3.5200   -1.7030 c3        1 MOL      0.061741
    164 C50        -1.8900   -3.0950   -0.8710 c         1 MOL      0.486173
    165 O22        -1.5500   -1.9860   -1.0540 o         1 MOL     -0.625572
    166 C51        -2.8510   -4.9410   -2.2360 c3        1 MOL      0.140124
    167 C52        -3.3110   -5.0030   -3.6480 c3        1 MOL     -0.356680
    168 C53        -3.0900   -6.4060   -4.1900 c         1 MOL      0.657828
    169 O23        -3.6290   -7.3420   -3.5690 o         1 MOL     -0.598859
    170 O24        -2.1480   -6.6490   -4.9540 o         1 MOL     -0.598859
    171 H80        -4.5530   -3.6570   -0.0870 hn        1 MOL      0.260562
    172 H81        -2.9470   -2.7670   -2.4810 h1        1 MOL      0.109248
    173 H82        -3.3320   -5.7060   -1.6230 hc        1 MOL      0.024089
    174 H83        -1.7950   -5.1770   -2.1750 hc        1 MOL      0.024089
    175 H84        -2.6540   -4.3250   -4.2040 hc        1 MOL      0.086623
    176 H85        -4.3770   -4.7830   -3.6770 hc        1 MOL      0.086623
    177 N15        -1.3060   -3.7470    0.0930 n         1 MOL     -0.305882
    178 C54        -1.5900   -5.0870    0.7350 c3        1 MOL      0.021110
    179 H86        -1.5410   -5.8700   -0.0230 h1        1 MOL      0.029624
    180 H87        -0.8480   -5.2840    1.5090 h1        1 MOL      0.029624
    181 H88        -2.5850   -5.0750    1.1800 h1        1 MOL      0.029624
    182 H89        -0.5920   -3.2130    0.5620 hn        1 MOL      0.257341
    183 Ca1        -0.6230    0.4240   -0.7580 Ca        1 MOL      1.734541
    184 O25        -3.1880    0.7070   -1.3160 oh        1 MOL     -1.052753
    185 H90        -3.9100    0.1060   -1.1500 ho        1 MOL      0.543701
    186 H91        -3.5320    1.5720   -1.0900 ho        1 MOL      0.543701
    187 O26         1.3520   -0.8230   -2.2190 oh        1 MOL     -1.052753
    188 H92         2.1360   -0.7290   -1.6870 ho        1 MOL      0.543701
    189 H93         1.3970   -0.1160   -2.8580 ho        1 MOL      0.543701
@<TRIPOS>BOND
     1    1    2 1   
     2    1    4 1   
     3    1    5 1   
     4    1    6 1   
     5    2    3 2   
     6    2    7 1   
     7    7    8 1   
     8    7   15 1   
     9    8    9 1   
    10    8   11 1   
    11    8   16 1   
    12    9   10 2   
    13    9   19 1   
    14   11   12 1   
    15   11   17 1   
    16   11   18 1   
    17   12   13 1   
    18   12   14 1   
    19   19   20 1   
    20   19   28 1   
    21   20   21 1   
    22   20   23 1   
    23   20   29 1   
    24   21   22 2   
    25   21   41 1   
    26   23   24 1   
    27   23   30 1   
    28   23   31 1   
    29   24   25 1   
    30   24   32 1   
    31   24   33 1   
    32   25   26 1   
    33   25   34 1   
    34   25   35 1   
    35   26   27 1   
    36   26   36 1   
    37   26   37 1   
    38   27   38 1   
    39   27   39 1   
    40   27   40 1   
    41   41   42 1   
    42   41   49 1   
    43   42   43 1   
    44   42   45 1   
    45   42   50 1   
    46   43   44 2   
    47   43   53 1   
    48   45   46 1   
    49   45   51 1   
    50   45   52 1   
    51   46   47 1   
    52   46   48 1   
    53   53   54 1   
    54   53   57 1   
    55   54   55 1   
    56   54   58 1   
    57   54   59 1   
    58   55   56 2   
    59   55   60 1   
    60   60   61 1   
    61   60   68 1   
    62   61   62 1   
    63   61   64 1   
    64   61   69 1   
    65   62   63 2   
    66   62   72 1   
    67   64   65 1   
    68   64   70 1   
    69   64   71 1   
    70   65   66 1   
    71   65   67 1   
    72   72   73 1   
    73   72   76 1   
    74   73   74 1   
    75   73   77 1   
    76   73   78 1   
    77   74   75 2   
    78   74   79 1   
    79   79   80 1   
    80   79   86 1   
    81   80   81 1   
    82   80   83 1   
    83   80   87 1   
    84   81   82 2   
    85   81   93 1   
    86   83   84 1   
    87   83   85 1   
    88   83   88 1   
    89   84   90 1   
    90   84   91 1   
    91   84   92 1   
    92   85   89 1   
    93   93   94 1   
    94   93  101 1   
    95   94   95 1   
    96   94   97 1   
    97   94  102 1   
    98   95   96 2   
    99   95  112 1   
   100   97   98 1   
   101   97   99 1   
   102   97  103 1   
   103   98  100 1   
   104   98  104 1   
   105   98  105 1   
   106   99  106 1   
   107   99  107 1   
   108   99  108 1   
   109  100  109 1   
   110  100  110 1   
   111  100  111 1   
   112  112  113 1   
   113  112  119 1   
   114  113  114 1   
   115  113  116 1   
   116  113  120 1   
   117  114  115 2   
   118  114  126 1   
   119  116  117 1   
   120  116  118 1   
   121  116  121 1   
   122  117  123 1   
   123  117  124 1   
   124  117  125 1   
   125  118  122 1   
   126  126  127 1   
   127  126  133 1   
   128  127  128 1   
   129  127  130 1   
   130  127  134 1   
   131  128  129 2   
   132  128  140 1   
   133  130  131 1   
   134  130  132 1   
   135  130  135 1   
   136  131  137 1   
   137  131  138 1   
   138  131  139 1   
   139  132  136 1   
   140  140  141 1   
   141  140  149 1   
   142  141  142 1   
   143  141  144 1   
   144  141  150 1   
   145  142  143 2   
   146  142  162 1   
   147  144  145 1   
   148  144  151 1   
   149  144  152 1   
   150  145  146 1   
   151  145  153 1   
   152  145  154 1   
   153  146  147 1   
   154  146  155 1   
   155  146  156 1   
   156  147  148 1   
   157  147  157 1   
   158  147  158 1   
   159  148  159 1   
   160  148  160 1   
   161  148  161 1   
   162  162  163 1   
   163  162  171 1   
   164  163  164 1   
   165  163  166 1   
   166  163  172 1   
   167  164  165 2   
   168  164  177 1   
   169  166  167 1   
   170  166  173 1   
   171  166  174 1   
   172  167  168 1   
   173  167  175 1   
   174  167  176 1   
   175  168  169 1   
   176  168  170 1   
   177  177  178 1   
   178  177  182 1   
   179  178  179 1   
   180  178  180 1   
   181  178  181 1   
   182  184  185 1   
   183  184  186 1   
   184  187  188 1   
   185  187  189 1   
@<TRIPOS>SUBSTRUCTURE
     1 MOL         1 TEMP              0 ****  ****    0 ROOT
