@<TRIPOS>MOLECULE
MOL
  192   187     1     0     0
SMALL
resp


@<TRIPOS>ATOM
      1 C1         -9.5160    0.7110   -2.0250 c3        1 MOL     -0.440272
      2 C2         -8.2160    0.3940   -1.3650 c         1 MOL      0.757885
      3 O1         -7.1550    0.3790   -2.0200 o         1 MOL     -0.659956
      4 H1        -10.0320    1.4850   -1.4570 hc        1 MOL      0.112450
      5 H2         -9.3310    1.0660   -3.0390 hc        1 MOL      0.112450
      6 H3        -10.1340   -0.1870   -2.0600 hc        1 MOL      0.112450
      7 N1         -8.2760    0.1890   -0.0400 n         1 MOL     -0.492410
      8 C3         -7.1110    0.0120    0.9490 c3        1 MOL     -0.140441
      9 C4         -6.5700   -1.4650    1.0380 c         1 MOL      0.525985
     10 O2         -6.2810   -2.1560    2.0630 o         1 MOL     -0.447913
     11 C5         -7.5050    0.5090    2.2720 c3        1 MOL     -0.170444
     12 C6         -8.6000   -0.2760    3.0150 c         1 MOL      0.673686
     13 O3         -9.7160   -0.4880    2.4620 o         1 MOL     -0.615804
     14 O4         -8.5250   -0.3890    4.2810 o         1 MOL     -0.615804
     15 H4         -9.2380    0.1170    0.2790 hn        1 MOL      0.238359
     16 H5         -6.3160    0.6520    0.5520 h1        1 MOL      0.142827
     17 H6         -7.9140    1.5260    2.1860 hc        1 MOL      0.083612
     18 H7         -6.5830    0.5770    2.8430 hc        1 MOL      0.083612
     19 N2         -6.4190   -2.0410   -0.1590 n         1 MOL     -0.484703
     20 C7         -6.0560   -3.4830   -0.3340 c3        1 MOL      0.112721
     21 C8         -4.6420   -3.7830    0.1040 c         1 MOL      0.405419
     22 O5         -4.4840   -4.9380    0.5680 o         1 MOL     -0.563160
     23 C9         -6.4360   -3.9760   -1.8180 c3        1 MOL     -0.069481
     24 C10        -7.9280   -3.9710   -2.0090 c3        1 MOL      0.040935
     25 C11        -8.3560   -4.7700   -3.2790 c3        1 MOL     -0.015838
     26 C12        -9.8360   -4.8120   -3.4080 c3        1 MOL      0.070291
     27 N3        -10.3310   -5.5370   -4.5310 n4        1 MOL     -0.142181
     28 H8         -6.5060   -1.4460   -0.9720 hn        1 MOL      0.272679
     29 H9         -6.7090   -4.0180    0.3450 h1        1 MOL      0.107895
     30 H10        -6.0790   -5.0030   -1.8070 hc        1 MOL      0.025379
     31 H11        -5.8450   -3.3520   -2.4910 hc        1 MOL      0.025379
     32 H12        -8.2640   -2.9540   -2.1830 hc        1 MOL      0.011207
     33 H13        -8.3780   -4.3990   -1.1080 hc        1 MOL      0.011207
     34 H14        -8.0240   -5.8000   -3.2340 hc        1 MOL      0.013641
     35 H15        -7.8610   -4.3600   -4.1610 hc        1 MOL      0.013641
     36 H16       -10.1600   -3.7780   -3.4010 hx        1 MOL      0.052613
     37 H17       -10.2360   -5.3030   -2.5140 hx        1 MOL      0.052613
     38 H18       -11.3370   -5.4510   -4.5750 hn        1 MOL      0.217910
     39 H19        -9.7760   -5.2840   -5.3370 hn        1 MOL      0.217910
     40 H20       -10.0060   -6.4850   -4.4790 hn        1 MOL      0.217910
     41 N4         -3.6500   -2.9660    0.0250 n         1 MOL     -0.264681
     42 C13        -3.4850   -1.7410   -0.8210 c3        1 MOL      0.109346
     43 C14        -3.5200   -0.5570    0.1400 c         1 MOL      0.254775
     44 O6         -3.5510   -0.8290    1.3670 o         1 MOL     -0.401719
     45 C15        -2.1010   -1.7720   -1.5150 c3        1 MOL     -0.515514
     46 C16        -0.9100   -2.1730   -0.6650 c         1 MOL      0.864719
     47 O7         -0.3150   -1.2820   -0.0600 o         1 MOL     -0.710012
     48 O8         -0.5980   -3.3650   -0.4730 o         1 MOL     -0.710012
     49 H21        -2.7970   -3.3650    0.3870 hn        1 MOL      0.313177
     50 H22        -4.3140   -1.5420   -1.4940 h1        1 MOL      0.088065
     51 H23        -1.9510   -0.7680   -1.8900 hc        1 MOL      0.106515
     52 H24        -2.2310   -2.4760   -2.3350 hc        1 MOL      0.106515
     53 N5         -3.7710    0.6610   -0.4420 n         1 MOL     -0.145367
     54 C17        -3.8050    1.9120    0.3360 c3        1 MOL     -0.070275
     55 C18        -2.5010    2.4530    0.9200 c         1 MOL      0.655021
     56 O9         -1.3950    1.9640    0.7330 o         1 MOL     -0.706894
     57 H25        -3.9450    0.5950   -1.4340 hn        1 MOL      0.224430
     58 H26        -4.4520    1.7270    1.1900 h1        1 MOL      0.048576
     59 H27        -4.3020    2.6490   -0.2840 h1        1 MOL      0.048576
     60 N6         -2.6770    3.5880    1.5640 n         1 MOL     -0.406201
     61 C19        -1.7850    4.4560    2.2660 c3        1 MOL      0.392003
     62 C20        -2.3130    5.8780    2.2170 c         1 MOL      0.428987
     63 O10        -3.5360    6.0970    2.1720 o         1 MOL     -0.541772
     64 C21        -1.3570    4.1140    3.7530 c3        1 MOL     -0.455407
     65 C22        -0.8460    2.7000    3.8070 c         1 MOL      0.740753
     66 O11         0.0720    2.3190    3.0640 o         1 MOL     -0.682692
     67 O12        -1.4970    1.8380    4.5060 o         1 MOL     -0.682692
     68 H28        -3.6680    3.7780    1.6680 hn        1 MOL      0.222424
     69 H29        -0.9420    4.4940    1.5720 h1        1 MOL      0.021029
     70 H30        -2.1120    4.2590    4.5340 hc        1 MOL      0.117431
     71 H31        -0.4890    4.6870    4.0530 hc        1 MOL      0.117431
     72 N7         -1.5130    6.9070    2.3420 n         1 MOL     -0.403729
     73 C23        -0.1140    6.9540    2.2940 c3        1 MOL     -0.032194
     74 C24         0.5930    6.6970    1.0130 c         1 MOL      0.696944
     75 O13         0.0790    6.9930   -0.0680 o         1 MOL     -0.558809
     76 H32        -1.9590    7.8060    2.2660 hn        1 MOL      0.317385
     77 H33         0.3250    6.3820    3.1030 h1        1 MOL      0.045935
     78 H34         0.2830    7.9530    2.4480 h1        1 MOL      0.045935
     79 N8          1.6590    5.9070    1.0920 n         1 MOL     -0.718425
     80 C25         2.4030    5.3950   -0.1260 c3        1 MOL      0.109776
     81 C26         1.7110    4.0960   -0.5940 c         1 MOL      0.940681
     82 O14         1.3110    3.2750    0.1860 o         1 MOL     -0.728853
     83 C27         3.9530    5.1920    0.1190 c3        1 MOL      0.540241
     84 C28         4.5990    6.4920    0.5180 c3        1 MOL     -0.439605
     85 O15         4.6010    4.7320   -1.0120 oh        1 MOL     -0.717483
     86 H35         2.0360    5.6670    1.9970 hn        1 MOL      0.320204
     87 H36         2.2840    6.0360   -0.9910 h1        1 MOL     -0.010708
     88 H37         4.0810    4.5240    0.9750 h1        1 MOL      0.027702
     89 H38         4.6870    5.3620   -1.7310 ho        1 MOL      0.410523
     90 H39         4.2630    7.3180   -0.1160 hc        1 MOL      0.111247
     91 H40         4.3300    6.6890    1.5520 hc        1 MOL      0.111247
     92 H41         5.6830    6.3340    0.6110 hc        1 MOL      0.111247
     93 N9          1.6280    3.9370   -1.9730 n         1 MOL     -0.776665
     94 C29         0.9110    2.9020   -2.6800 c3        1 MOL      0.022891
     95 C30         1.3960    1.4670   -2.3080 c         1 MOL      0.999972
     96 O16         1.2740    0.9860   -1.1830 o         1 MOL     -0.809464
     97 C31        -0.6440    3.1200   -2.5240 c3        1 MOL      0.295393
     98 C32        -1.1210    4.5910   -2.8520 c3        1 MOL     -0.034968
     99 C33        -1.3700    2.2130   -3.5250 c3        1 MOL     -0.730450
    100 C34        -2.6140    5.0160   -2.7140 c3        1 MOL     -0.174453
    101 H42         2.0870    4.6190   -2.5670 hn        1 MOL      0.319151
    102 H43         1.1670    3.1190   -3.7150 h1        1 MOL      0.040782
    103 H44        -0.9000    2.7290   -1.5380 hc        1 MOL      0.019736
    104 H45        -0.5860    4.8310   -3.7690 hc        1 MOL      0.008499
    105 H46        -0.6420    5.1900   -2.0830 hc        1 MOL      0.008499
    106 H47        -2.4450    2.3650   -3.3860 hc        1 MOL      0.165576
    107 H48        -1.1050    2.5130   -4.5370 hc        1 MOL      0.165576
    108 H49        -1.1540    1.1730   -3.3030 hc        1 MOL      0.165576
    109 H50        -2.7630    6.0920   -2.7500 hc        1 MOL      0.058457
    110 H51        -3.1720    4.4580   -3.4670 hc        1 MOL      0.058457
    111 H52        -2.9600    4.7950   -1.7050 hc        1 MOL      0.058457
    112 N10         1.8830    0.7250   -3.3140 n         1 MOL     -0.471673
    113 C35         2.1990   -0.6770   -3.2100 c3        1 MOL      0.028260
    114 C36         3.6800   -1.0600   -2.9390 c         1 MOL      0.453157
    115 O17         4.1840   -2.1000   -3.3810 o         1 MOL     -0.554134
    116 C37         1.6030   -1.4510   -4.4000 c3        1 MOL      0.339404
    117 C38         2.1070   -1.0400   -5.7560 c3        1 MOL     -0.312872
    118 O18         0.2160   -1.1200   -4.4320 oh        1 MOL     -0.633618
    119 H53         2.0340    1.1710   -4.2090 hn        1 MOL      0.239577
    120 H54         1.6400   -1.0160   -2.3380 h1        1 MOL      0.078011
    121 H55         1.6630   -2.5360   -4.3450 h1        1 MOL      0.030249
    122 H56        -0.2050   -1.7590   -5.0160 ho        1 MOL      0.409224
    123 H57         1.5100   -1.5540   -6.5140 hc        1 MOL      0.071980
    124 H58         1.9580    0.0350   -5.8250 hc        1 MOL      0.071980
    125 H59         3.1610   -1.3030   -5.8830 hc        1 MOL      0.071980
    126 N11         4.3420   -0.0600   -2.3440 n         1 MOL     -0.039672
    127 C39         5.7390    0.2590   -2.4090 c3        1 MOL     -0.169437
    128 C40         6.4940   -0.5650   -1.3250 c         1 MOL      0.637392
    129 O19         7.3230   -0.0530   -0.5580 o         1 MOL     -0.523388
    130 C41         5.9620    1.7850   -2.2660 c3        1 MOL      0.275872
    131 C42         5.4640    2.5300   -3.4680 c3        1 MOL     -0.004772
    132 O20         5.1890    2.2030   -1.1150 oh        1 MOL     -0.666139
    133 H60         3.8330    0.7640   -2.0400 hn        1 MOL      0.084716
    134 H61         5.9610   -0.1770   -3.3790 h1        1 MOL      0.080622
    135 H62         7.0430    1.9500   -2.2910 h1        1 MOL      0.028796
    136 H63         5.1520    3.1620   -1.0740 ho        1 MOL      0.444238
    137 H64         4.3820    2.5020   -3.5540 hc        1 MOL     -0.010227
    138 H65         5.8140    3.5590   -3.3900 hc        1 MOL     -0.010227
    139 H66         5.9440    2.1680   -4.3800 hc        1 MOL     -0.010227
    140 N12         6.2230   -1.8850   -1.3710 n         1 MOL     -0.866408
    141 C43         6.3340   -2.7640   -0.2570 c3        1 MOL      0.450854
    142 C44         5.2550   -2.4670    0.7880 c         1 MOL      0.528747
    143 O21         4.7060   -1.3800    0.8370 o         1 MOL     -0.493998
    144 C45         7.7520   -2.7950    0.2850 c3        1 MOL     -0.475122
    145 C46         8.8030   -3.0980   -0.7700 c3        1 MOL      0.328692
    146 C47        10.1680   -3.4390   -0.1210 c3        1 MOL     -0.405278
    147 C48        11.3530   -3.3750   -1.1520 c3        1 MOL      0.268137
    148 N13        11.4670   -1.9720   -1.7370 n4        1 MOL     -0.386346
    149 H67         5.6160   -2.1610   -2.1230 hn        1 MOL      0.393002
    150 H68         6.1260   -3.7740   -0.6150 h1        1 MOL      0.003106
    151 H69         7.6160   -3.5970    1.0090 hc        1 MOL      0.107986
    152 H70         8.0290   -1.8750    0.7890 hc        1 MOL      0.107986
    153 H71         8.9320   -2.2440   -1.4470 hc        1 MOL     -0.021261
    154 H72         8.4800   -3.9560   -1.3570 hc        1 MOL     -0.021261
    155 H73        10.2090   -4.4900    0.1350 hc        1 MOL      0.146512
    156 H74        10.3920   -2.7000    0.6600 hc        1 MOL      0.146512
    157 H75        11.2550   -4.0800   -1.9750 hx        1 MOL      0.023183
    158 H76        12.2930   -3.6530   -0.6880 hx        1 MOL      0.023183
    159 H77        10.5580   -1.5720   -1.9300 hn        1 MOL      0.261739
    160 H78        11.8790   -1.2680   -1.1310 hn        1 MOL      0.261739
    161 H79        11.9790   -1.9200   -2.6120 hn        1 MOL      0.261739
    162 N14         4.8080   -3.5220    1.4960 n         1 MOL     -0.636448
    163 C49         3.7450   -3.3130    2.4660 c3        1 MOL      0.418672
    164 C50         2.3850   -2.8820    1.8850 c         1 MOL      0.042983
    165 O22         1.8740   -1.8000    2.2530 o         1 MOL     -0.465575
    166 C51         3.5830   -4.5830    3.3430 c3        1 MOL      0.054603
    167 C52         4.6520   -4.7460    4.4390 c3        1 MOL     -0.063613
    168 C53         4.4110   -6.0460    5.2570 c         1 MOL      0.555667
    169 O23         4.0470   -5.8350    6.4310 o         1 MOL     -0.602416
    170 O24         4.2100   -7.1600    4.6520 o         1 MOL     -0.602416
    171 H80         5.3320   -4.3850    1.5530 hn        1 MOL      0.354351
    172 H81         4.0680   -2.5530    3.1770 h1        1 MOL     -0.000675
    173 H82         3.6380   -5.5220    2.7970 hc        1 MOL      0.024954
    174 H83         2.6040   -4.5260    3.8190 hc        1 MOL      0.024954
    175 H84         4.8040   -3.9410    5.1590 hc        1 MOL     -0.039225
    176 H85         5.6340   -4.7940    3.9600 hc        1 MOL     -0.039225
    177 N15         1.7180   -3.6500    0.9820 n         1 MOL     -0.114712
    178 C54         2.0480   -4.9530    0.4310 c3        1 MOL      0.135792
    179 H86         3.0470   -5.2430    0.7590 h1        1 MOL     -0.024814
    180 H87         1.3240   -5.6890    0.7800 h1        1 MOL     -0.024814
    181 H88         2.0230   -4.9060   -0.6570 h1        1 MOL     -0.024814
    182 H89         0.9750   -3.1970    0.4690 hn        1 MOL      0.252741
    183 Ca1         0.7630    0.5670    1.3680 Ca        1 MOL      1.895272
    184 O25         2.4880    0.6800    3.5290 oh        1 MOL     -0.916273
    185 H90         2.3290    0.7310    4.4700 ho        1 MOL      0.430663
    186 H91         3.4470    0.6860    3.4500 ho        1 MOL      0.430663
    187 O26        -1.2390   -0.4320    2.9070 oh        1 MOL     -0.916273
    188 H92        -1.4950    0.1600    3.6110 ho        1 MOL      0.430663
    189 H93        -2.0600   -0.7290    2.5230 ho        1 MOL      0.430663
    190 O27         3.5080    0.9740    0.7200 oh        1 MOL     -0.916273
    191 H94         3.9290    0.1110    0.8100 ho        1 MOL      0.430663
    192 H95         4.0640    1.4430    0.1100 ho        1 MOL      0.430663
@<TRIPOS>BOND
     1    1    2 1   
     2    1    4 1   
     3    1    5 1   
     4    1    6 1   
     5    2    3 2   
     6    2    7 1   
     7    7    8 1   
     8    7   15 1   
     9    8    9 1   
    10    8   11 1   
    11    8   16 1   
    12    9   10 2   
    13    9   19 1   
    14   11   12 1   
    15   11   17 1   
    16   11   18 1   
    17   12   13 1   
    18   12   14 1   
    19   19   20 1   
    20   19   28 1   
    21   20   21 1   
    22   20   23 1   
    23   20   29 1   
    24   21   22 2   
    25   21   41 1   
    26   23   24 1   
    27   23   30 1   
    28   23   31 1   
    29   24   25 1   
    30   24   32 1   
    31   24   33 1   
    32   25   26 1   
    33   25   34 1   
    34   25   35 1   
    35   26   27 1   
    36   26   36 1   
    37   26   37 1   
    38   27   38 1   
    39   27   39 1   
    40   27   40 1   
    41   41   42 1   
    42   41   49 1   
    43   42   43 1   
    44   42   45 1   
    45   42   50 1   
    46   43   44 2   
    47   43   53 1   
    48   45   46 1   
    49   45   51 1   
    50   45   52 1   
    51   46   47 1   
    52   46   48 1   
    53   53   54 1   
    54   53   57 1   
    55   54   55 1   
    56   54   58 1   
    57   54   59 1   
    58   55   56 2   
    59   55   60 1   
    60   60   61 1   
    61   60   68 1   
    62   61   62 1   
    63   61   64 1   
    64   61   69 1   
    65   62   63 2   
    66   62   72 1   
    67   64   65 1   
    68   64   70 1   
    69   64   71 1   
    70   65   66 1   
    71   65   67 1   
    72   72   73 1   
    73   72   76 1   
    74   73   74 1   
    75   73   77 1   
    76   73   78 1   
    77   74   75 2   
    78   74   79 1   
    79   79   80 1   
    80   79   86 1   
    81   80   81 1   
    82   80   83 1   
    83   80   87 1   
    84   81   82 2   
    85   81   93 1   
    86   83   84 1   
    87   83   85 1   
    88   83   88 1   
    89   84   90 1   
    90   84   91 1   
    91   84   92 1   
    92   85   89 1   
    93   93   94 1   
    94   93  101 1   
    95   94   95 1   
    96   94   97 1   
    97   94  102 1   
    98   95   96 2   
    99   95  112 1   
   100   97   98 1   
   101   97   99 1   
   102   97  103 1   
   103   98  100 1   
   104   98  104 1   
   105   98  105 1   
   106   99  106 1   
   107   99  107 1   
   108   99  108 1   
   109  100  109 1   
   110  100  110 1   
   111  100  111 1   
   112  112  113 1   
   113  112  119 1   
   114  113  114 1   
   115  113  116 1   
   116  113  120 1   
   117  114  115 2   
   118  114  126 1   
   119  116  117 1   
   120  116  118 1   
   121  116  121 1   
   122  117  123 1   
   123  117  124 1   
   124  117  125 1   
   125  118  122 1   
   126  126  127 1   
   127  126  133 1   
   128  127  128 1   
   129  127  130 1   
   130  127  134 1   
   131  128  129 2   
   132  128  140 1   
   133  130  131 1   
   134  130  132 1   
   135  130  135 1   
   136  131  137 1   
   137  131  138 1   
   138  131  139 1   
   139  132  136 1   
   140  140  141 1   
   141  140  149 1   
   142  141  142 1   
   143  141  144 1   
   144  141  150 1   
   145  142  143 2   
   146  142  162 1   
   147  144  145 1   
   148  144  151 1   
   149  144  152 1   
   150  145  146 1   
   151  145  153 1   
   152  145  154 1   
   153  146  147 1   
   154  146  155 1   
   155  146  156 1   
   156  147  148 1   
   157  147  157 1   
   158  147  158 1   
   159  148  159 1   
   160  148  160 1   
   161  148  161 1   
   162  162  163 1   
   163  162  171 1   
   164  163  164 1   
   165  163  166 1   
   166  163  172 1   
   167  164  165 2   
   168  164  177 1   
   169  166  167 1   
   170  166  173 1   
   171  166  174 1   
   172  167  168 1   
   173  167  175 1   
   174  167  176 1   
   175  168  169 1   
   176  168  170 1   
   177  177  178 1   
   178  177  182 1   
   179  178  179 1   
   180  178  180 1   
   181  178  181 1   
   182  184  185 1   
   183  184  186 1   
   184  187  188 1   
   185  187  189 1   
   186  190  191 1   
   187  190  192 1   
@<TRIPOS>SUBSTRUCTURE
     1 MOL         1 TEMP              0 ****  ****    0 ROOT
