@<TRIPOS>MOLECULE
MOL
  184   179     1     0     0
SMALL
resp


@<TRIPOS>ATOM
      1 C1          1.3130   -3.0370    4.3860 c3        1 MOL     -0.094635
      2 C2          2.7190   -2.4590    4.1280 c         1 MOL      0.556571
      3 O1          2.8850   -1.2190    4.2660 o         1 MOL     -0.575327
      4 H1          0.6970   -2.2850    4.8770 hc        1 MOL      0.023579
      5 H2          0.8560   -3.3170    3.4360 hc        1 MOL      0.023579
      6 H3          1.3930   -3.9160    5.0260 hc        1 MOL      0.023579
      7 N1          3.7000   -3.2530    3.7590 n         1 MOL     -0.584052
      8 C3          5.0750   -2.9330    3.3790 c3        1 MOL      0.566938
      9 C4          5.3900   -3.1430    1.8900 c         1 MOL      0.475352
     10 O2          5.0070   -4.1580    1.2950 o         1 MOL     -0.584885
     11 C5          6.0240   -3.6680    4.3000 c3        1 MOL     -0.214520
     12 C6          7.2720   -2.9290    4.6500 c         1 MOL      0.715882
     13 O3          7.4350   -1.7570    4.2990 o         1 MOL     -0.734321
     14 O4          8.2500   -3.5320    5.1440 o         1 MOL     -0.734321
     15 H4          3.4470   -4.2190    3.6050 hn        1 MOL      0.250122
     16 H5          5.1670   -1.8620    3.5780 h1        1 MOL     -0.060831
     17 H6          6.1430   -4.6870    3.9370 hc        1 MOL     -0.003381
     18 H7          5.4510   -3.7930    5.2170 hc        1 MOL     -0.003381
     19 N2          6.0750   -2.1870    1.1840 n         1 MOL     -0.652321
     20 C7          6.4320   -2.2950   -0.2610 c3        1 MOL      0.685016
     21 C8          5.6760   -1.3460   -1.1660 c         1 MOL      0.291191
     22 O5          4.9080   -0.6060   -0.5910 o         1 MOL     -0.473223
     23 C9          7.9720   -2.1670   -0.3300 c3        1 MOL     -0.598074
     24 H8          6.2900   -1.2970    1.6150 hn        1 MOL      0.308336
     25 H9          6.2360   -3.3410   -0.5230 h1        1 MOL     -0.031623
     26 H10         8.2070   -1.2070    0.1230 hc        1 MOL      0.141189
     27 H11         8.3980   -3.0790    0.0990 hc        1 MOL      0.141189
     28 H12         8.3970   -2.3220   -1.3160 hc        1 MOL      0.141189
     29 N3          5.7720   -1.5490   -2.4750 n         1 MOL     -0.550767
     30 C10         5.0140   -0.8950   -3.5220 c3        1 MOL      0.334110
     31 C11         5.6070    0.4270   -4.0360 c         1 MOL      0.329600
     32 O6          5.4350    0.8200   -5.2180 o         1 MOL     -0.444136
     33 C12         4.6940   -1.8080   -4.6980 c3        1 MOL     -0.362422
     34 C13         4.0580   -3.2210   -4.2620 c         1 MOL      0.781524
     35 O7          2.9400   -3.1860   -3.7650 o         1 MOL     -0.706491
     36 O8          4.7110   -4.2890   -4.4260 o         1 MOL     -0.706491
     37 H13         6.3970   -2.2600   -2.8250 hn        1 MOL      0.275963
     38 H14         4.0670   -0.6660   -3.0420 h1        1 MOL      0.067892
     39 H15         5.6610   -2.0580   -5.1310 hc        1 MOL      0.074774
     40 H16         4.0410   -1.2920   -5.4060 hc        1 MOL      0.074774
     41 N4          6.3250    1.1610   -3.1230 n         1 MOL     -0.286455
     42 C14         6.8980    2.4610   -3.3970 c3        1 MOL     -0.232260
     43 C15         5.8530    3.5680   -3.6210 c         1 MOL      0.471271
     44 O9          6.0170    4.5480   -4.3670 o         1 MOL     -0.527862
     45 H17         6.4550    0.8160   -2.1770 hn        1 MOL      0.270298
     46 H18         7.4700    2.4150   -4.3240 h1        1 MOL      0.127250
     47 H19         7.6010    2.7480   -2.6150 h1        1 MOL      0.127250
     48 N5          4.6610    3.4340   -3.0620 n         1 MOL     -0.256192
     49 C16         3.5780    4.4080   -3.2740 c3        1 MOL      0.135356
     50 C17         3.3880    5.3300   -2.0130 c         1 MOL      0.450197
     51 O10         2.9020    6.4640   -2.1510 o         1 MOL     -0.497527
     52 C18         2.3820    3.5050   -3.6800 c3        1 MOL     -0.260431
     53 C19         1.2600    4.3330   -4.2850 c         1 MOL      0.637341
     54 N6          0.1360    4.3070   -3.5680 n         1 MOL     -0.763897
     55 O11         1.2970    4.9850   -5.3290 o         1 MOL     -0.554399
     56 H20         4.3950    2.7500   -2.3700 hn        1 MOL      0.144437
     57 H21         3.8760    5.0400   -4.1070 h1        1 MOL      0.092956
     58 H22         1.9790    2.9350   -2.8500 hc        1 MOL      0.104894
     59 H23         2.7700    2.8050   -4.4250 hc        1 MOL      0.104894
     60 H24         0.1200    3.8820   -2.6570 hn        1 MOL      0.357386
     61 H25        -0.6840    4.8210   -3.8550 hn        1 MOL      0.357386
     62 N7          3.6520    4.8320   -0.7970 n         1 MOL     -0.494757
     63 C20         3.4260    5.5180    0.5000 c3        1 MOL     -0.168792
     64 C21         1.9320    5.7290    0.7300 c         1 MOL      0.724887
     65 O12         1.0490    5.2410    0.0790 o         1 MOL     -0.510922
     66 H26         3.9290    3.8650   -0.7130 hn        1 MOL      0.339738
     67 H27         3.9020    6.4980    0.4830 h1        1 MOL      0.121573
     68 H28         3.8500    4.9400    1.3240 h1        1 MOL      0.121573
     69 N8          1.6220    6.4380    1.8300 n         1 MOL     -0.524734
     70 C22         0.2350    6.8970    2.0600 c3        1 MOL     -0.138955
     71 C23        -0.7030    5.7440    2.4790 c         1 MOL      0.408163
     72 O13        -1.8840    6.0140    2.5730 o         1 MOL     -0.558720
     73 C24         0.2060    7.9370    3.2020 c3        1 MOL      0.529472
     74 C25         0.5080    7.6730    4.6210 c3        1 MOL     -0.174338
     75 O14         1.0630    8.9540    2.7660 oh        1 MOL     -0.714200
     76 H29         2.4230    6.9320    2.2110 hn        1 MOL      0.215000
     77 H30        -0.1190    7.4040    1.1660 h1        1 MOL      0.156066
     78 H31        -0.7950    8.3670    3.1550 h1        1 MOL      0.003919
     79 H32         2.0130    8.8220    2.7990 ho        1 MOL      0.416476
     80 H33         1.0440    8.4720    5.1400 hc        1 MOL      0.034076
     81 H34        -0.4270    7.4900    5.1420 hc        1 MOL      0.034076
     82 H35         1.0530    6.7380    4.6600 hc        1 MOL      0.034076
     83 N9         -0.2720    4.5110    2.7010 n         1 MOL     -0.179717
     84 C26        -1.1850    3.3940    3.0550 c3        1 MOL      0.153852
     85 C27        -0.9680    2.2950    1.9690 c         1 MOL      0.327060
     86 O15         0.1520    1.9780    1.7220 o         1 MOL     -0.442511
     87 C28        -0.9570    2.8830    4.4870 c3        1 MOL      0.178823
     88 C29        -1.1910    3.9150    5.6800 c3        1 MOL     -0.235254
     89 C30        -1.7820    1.6070    4.7110 c3        1 MOL     -0.134077
     90 C31        -2.4980    4.6590    5.7490 c3        1 MOL     -0.128263
     91 H36         0.7160    4.3160    2.6370 hn        1 MOL      0.163087
     92 H37        -2.2000    3.7480    2.8840 h1        1 MOL      0.054934
     93 H38         0.1060    2.6850    4.6260 hc        1 MOL     -0.013786
     94 H39        -0.3880    4.6510    5.5920 hc        1 MOL      0.070960
     95 H40        -1.1310    3.3550    6.6130 hc        1 MOL      0.070960
     96 H41        -1.6500    1.4180    5.7750 hc        1 MOL      0.034963
     97 H42        -2.8380    1.8000    4.5080 hc        1 MOL      0.034963
     98 H43        -1.4170    0.7460    4.1620 hc        1 MOL      0.034963
     99 H44        -2.3610    5.4480    6.4830 hc        1 MOL      0.035452
    100 H45        -2.8040    4.9830    4.7520 hc        1 MOL      0.035452
    101 H46        -3.3090    4.0480    6.1540 hc        1 MOL      0.035452
    102 N10        -2.0480    1.5830    1.5330 n         1 MOL     -0.488348
    103 C32        -1.9900    0.5050    0.6120 c3        1 MOL      0.343569
    104 C33        -3.2780    0.2080   -0.2390 c         1 MOL      0.375140
    105 O16        -3.5310   -0.9570   -0.6440 o         1 MOL     -0.416428
    106 C34        -1.5670   -0.8160    1.4270 c3        1 MOL     -0.431687
    107 C35        -0.7690   -1.8730    0.5920 c         1 MOL      0.964225
    108 O17        -0.3080   -2.8890    1.1660 o         1 MOL     -0.792350
    109 O18        -0.4670   -1.7060   -0.6010 o         1 MOL     -0.792350
    110 H47        -2.9400    1.9230    1.8570 hn        1 MOL      0.258113
    111 H48        -1.2690    0.7640   -0.1510 h1        1 MOL      0.042702
    112 H49        -2.4700   -1.2440    1.8680 hc        1 MOL      0.114966
    113 H50        -0.8710   -0.4780    2.1890 hc        1 MOL      0.114966
    114 N11        -4.1600    1.2260   -0.4510 n         1 MOL     -0.472281
    115 C36        -5.3800    1.0230   -1.2750 c3        1 MOL      0.158433
    116 C37        -6.3390    0.0770   -0.5810 c         1 MOL      0.274828
    117 O19        -6.7290    0.3150    0.5980 o         1 MOL     -0.525179
    118 C38        -6.1930    2.3040   -1.6300 c3        1 MOL     -0.063806
    119 C39        -7.2980    2.1480   -2.6370 ca        1 MOL      0.002066
    120 C40        -7.1700    2.3510   -4.0160 ca        1 MOL     -0.115499
    121 C41        -8.5610    1.8530   -2.1750 ca        1 MOL     -0.115499
    122 C42        -8.1970    2.1190   -4.9910 ca        1 MOL     -0.118189
    123 C43        -9.6480    1.5510   -3.0510 ca        1 MOL     -0.118189
    124 C44        -9.4450    1.7100   -4.4310 ca        1 MOL     -0.139286
    125 H51        -3.9020    2.1910   -0.2890 hn        1 MOL      0.266285
    126 H52        -5.1100    0.6160   -2.2430 h1        1 MOL      0.042563
    127 H53        -5.5430    3.0740   -2.0360 hc        1 MOL      0.062488
    128 H54        -6.5070    2.8320   -0.7290 hc        1 MOL      0.062488
    129 H55        -6.1890    2.7260   -4.2560 ha        1 MOL      0.099943
    130 H56        -8.7420    1.9110   -1.1100 ha        1 MOL      0.099943
    131 H57        -8.0910    2.3550   -6.0320 ha        1 MOL      0.125123
    132 H58       -10.6710    1.4310   -2.7240 ha        1 MOL      0.125123
    133 H59       -10.3090    1.5340   -5.0580 ha        1 MOL      0.107718
    134 N12        -6.8110   -1.0030   -1.2120 n         1 MOL     -0.008628
    135 C45        -7.7850   -1.8480   -0.5440 c3        1 MOL      0.141078
    136 C46        -7.1200   -2.7540    0.5770 c         1 MOL      0.290536
    137 O20        -7.9080   -3.1930    1.4460 o         1 MOL     -0.536823
    138 C47        -8.3350   -2.7300   -1.7000 c3        1 MOL     -0.032955
    139 C48        -8.1380   -1.8930   -2.9820 c3        1 MOL     -0.054540
    140 C49        -6.7700   -1.2750   -2.6520 c3        1 MOL      0.009871
    141 H60        -8.6340   -1.3070   -0.1410 h1        1 MOL      0.040082
    142 H61        -7.6550   -3.5790   -1.7860 hc        1 MOL      0.018722
    143 H62        -9.3960   -2.9540   -1.5750 hc        1 MOL      0.018722
    144 H63        -8.1680   -2.5380   -3.8590 hc        1 MOL      0.026088
    145 H64        -8.8680   -1.0820   -3.0300 hc        1 MOL      0.026088
    146 H65        -5.9200   -1.9260   -2.8510 h1        1 MOL      0.034468
    147 H66        -6.5830   -0.4000   -3.2690 h1        1 MOL      0.034468
    148 N13        -5.7790   -2.9430    0.5200 n         1 MOL     -0.234012
    149 C50        -5.0570   -3.9130    1.3890 c3        1 MOL      0.031233
    150 C51        -5.0390   -3.4290    2.8970 c         1 MOL      0.382499
    151 O21        -4.5600   -4.1160    3.7690 o         1 MOL     -0.498647
    152 C52        -3.6140   -4.0160    0.9170 c3        1 MOL      0.069778
    153 C53        -3.6020   -5.1290   -0.1890 c3        1 MOL     -0.172658
    154 C54        -2.1810   -5.2330   -0.6580 c         1 MOL      0.777605
    155 O22        -1.8610   -4.7960   -1.7810 o         1 MOL     -0.772400
    156 O23        -1.2920   -5.7420    0.0620 o         1 MOL     -0.772400
    157 H67        -5.2510   -2.4210   -0.1640 hn        1 MOL      0.203783
    158 H68        -5.6340   -4.8380    1.3530 h1        1 MOL      0.074711
    159 H69        -3.0810   -4.6030    1.6690 hc        1 MOL     -0.007335
    160 H70        -3.2470   -3.0140    0.6840 hc        1 MOL     -0.007335
    161 H71        -4.3400   -4.8970   -0.9610 hc        1 MOL      0.018101
    162 H72        -3.8970   -6.0750    0.2710 hc        1 MOL      0.018101
    163 N14        -5.6140   -2.2170    3.1280 n         1 MOL     -0.121696
    164 C55        -5.7380   -1.6360    4.4900 c3        1 MOL     -0.370386
    165 H73        -6.4620   -2.2120    5.0650 h1        1 MOL      0.127470
    166 H74        -4.7690   -1.6690    4.9890 h1        1 MOL      0.127470
    167 H75        -6.0740   -0.6020    4.4150 h1        1 MOL      0.127470
    168 H76        -5.9000   -1.6510    2.3450 hn        1 MOL      0.216281
    169 Ca1         0.7890   -4.4630   -0.6180 Ca        1 MOL      1.794682
    170 O24         2.4820   -2.4630   -0.1240 oh        1 MOL     -0.848636
    171 H77         3.3920   -2.7040    0.0320 ho        1 MOL      0.405207
    172 H78         2.3490   -1.6840    0.4170 ho        1 MOL      0.405207
    173 O25         0.7410   -4.3900   -3.3780 oh        1 MOL     -0.848636
    174 H79         0.3540   -4.4590   -4.2490 ho        1 MOL      0.405207
    175 H80         1.5580   -3.9110   -3.5220 ho        1 MOL      0.405207
    176 O26         2.5490   -5.4480    1.6020 oh        1 MOL     -0.848636
    177 H81         2.6210   -6.1830    2.2150 ho        1 MOL      0.405207
    178 H82         3.4550   -5.2310    1.3880 ho        1 MOL      0.405207
    179 O27         0.7950   -7.0060   -1.3940 oh        1 MOL     -0.848636
    180 H83         0.0030   -7.5370   -1.3850 ho        1 MOL      0.405207
    181 H84         1.4650   -7.5720   -1.7620 ho        1 MOL      0.405207
    182 O28         3.2190   -5.2360   -1.9420 oh        1 MOL     -0.848636
    183 H85         3.2790   -4.5580   -2.6190 ho        1 MOL      0.405207
    184 H86         4.0830   -5.6440   -1.9360 ho        1 MOL      0.405207
@<TRIPOS>BOND
     1    1    2 1   
     2    1    4 1   
     3    1    5 1   
     4    1    6 1   
     5    2    3 2   
     6    2    7 1   
     7    7    8 1   
     8    7   15 1   
     9    8    9 1   
    10    8   11 1   
    11    8   16 1   
    12    9   10 2   
    13    9   19 1   
    14   11   12 1   
    15   11   17 1   
    16   11   18 1   
    17   12   13 1   
    18   12   14 1   
    19   19   20 1   
    20   19   24 1   
    21   20   21 1   
    22   20   23 1   
    23   20   25 1   
    24   21   22 2   
    25   21   29 1   
    26   23   26 1   
    27   23   27 1   
    28   23   28 1   
    29   29   30 1   
    30   29   37 1   
    31   30   31 1   
    32   30   33 1   
    33   30   38 1   
    34   31   32 2   
    35   31   41 1   
    36   33   34 1   
    37   33   39 1   
    38   33   40 1   
    39   34   35 1   
    40   34   36 1   
    41   41   42 1   
    42   41   45 1   
    43   42   43 1   
    44   42   46 1   
    45   42   47 1   
    46   43   44 2   
    47   43   48 1   
    48   48   49 1   
    49   48   56 1   
    50   49   50 1   
    51   49   52 1   
    52   49   57 1   
    53   50   51 2   
    54   50   62 1   
    55   52   53 1   
    56   52   58 1   
    57   52   59 1   
    58   53   54 1   
    59   53   55 2   
    60   54   60 1   
    61   54   61 1   
    62   62   63 1   
    63   62   66 1   
    64   63   64 1   
    65   63   67 1   
    66   63   68 1   
    67   64   65 2   
    68   64   69 1   
    69   69   70 1   
    70   69   76 1   
    71   70   71 1   
    72   70   73 1   
    73   70   77 1   
    74   71   72 2   
    75   71   83 1   
    76   73   74 1   
    77   73   75 1   
    78   73   78 1   
    79   74   80 1   
    80   74   81 1   
    81   74   82 1   
    82   75   79 1   
    83   83   84 1   
    84   83   91 1   
    85   84   85 1   
    86   84   87 1   
    87   84   92 1   
    88   85   86 2   
    89   85  102 1   
    90   87   88 1   
    91   87   89 1   
    92   87   93 1   
    93   88   90 1   
    94   88   94 1   
    95   88   95 1   
    96   89   96 1   
    97   89   97 1   
    98   89   98 1   
    99   90   99 1   
   100   90  100 1   
   101   90  101 1   
   102  102  103 1   
   103  102  110 1   
   104  103  104 1   
   105  103  106 1   
   106  103  111 1   
   107  104  105 2   
   108  104  114 1   
   109  106  107 1   
   110  106  112 1   
   111  106  113 1   
   112  107  108 1   
   113  107  109 1   
   114  114  115 1   
   115  114  125 1   
   116  115  116 1   
   117  115  118 1   
   118  115  126 1   
   119  116  117 2   
   120  116  134 1   
   121  118  119 1   
   122  118  127 1   
   123  118  128 1   
   124  119  120 ar  
   125  119  121 ar  
   126  120  122 ar  
   127  120  129 1   
   128  121  123 ar  
   129  121  130 1   
   130  122  124 ar  
   131  122  131 1   
   132  123  124 ar  
   133  123  132 1   
   134  124  133 1   
   135  134  135 1   
   136  134  140 1   
   137  135  136 1   
   138  135  138 1   
   139  135  141 1   
   140  136  137 2   
   141  136  148 1   
   142  138  139 1   
   143  138  142 1   
   144  138  143 1   
   145  139  140 1   
   146  139  144 1   
   147  139  145 1   
   148  140  146 1   
   149  140  147 1   
   150  148  149 1   
   151  148  157 1   
   152  149  150 1   
   153  149  152 1   
   154  149  158 1   
   155  150  151 2   
   156  150  163 1   
   157  152  153 1   
   158  152  159 1   
   159  152  160 1   
   160  153  154 1   
   161  153  161 1   
   162  153  162 1   
   163  154  155 1   
   164  154  156 1   
   165  163  164 1   
   166  163  168 1   
   167  164  165 1   
   168  164  166 1   
   169  164  167 1   
   170  170  171 1   
   171  170  172 1   
   172  173  174 1   
   173  173  175 1   
   174  176  177 1   
   175  176  178 1   
   176  179  180 1   
   177  179  181 1   
   178  182  183 1   
   179  182  184 1   
@<TRIPOS>SUBSTRUCTURE
     1 MOL         1 TEMP              0 ****  ****    0 ROOT
