@<TRIPOS>MOLECULE
MOL
  181   177     1     0     0
SMALL
resp


@<TRIPOS>ATOM
      1 C1          6.6270    3.4190    4.7100 c3        1 MOL     -0.255510
      2 C2          5.9950    2.3750    3.7700 c         1 MOL      0.665482
      3 O1          4.7990    2.1520    3.8360 o         1 MOL     -0.586370
      4 H1          5.9300    4.2450    4.8570 hc        1 MOL      0.064812
      5 H2          6.8480    2.9570    5.6720 hc        1 MOL      0.064812
      6 H3          7.5480    3.7970    4.2670 hc        1 MOL      0.064812
      7 N1          6.8080    1.6260    3.0070 n         1 MOL     -0.401680
      8 C3          8.2720    1.6810    2.8820 c3        1 MOL     -0.001979
      9 C4          8.7880    0.2420    2.7010 c         1 MOL      0.496299
     10 O2          8.2180   -0.6750    3.2950 o         1 MOL     -0.427608
     11 C5          8.5270    2.6970    1.7710 c3        1 MOL     -0.333091
     12 C6          7.7160    2.2640    0.5210 c         1 MOL      0.847661
     13 O3          6.7700    3.0010    0.0780 o         1 MOL     -0.807287
     14 O4          7.8630    1.1850   -0.0500 o         1 MOL     -0.807287
     15 H4          6.3370    0.9140    2.4710 hn        1 MOL      0.234371
     16 H5          8.8250    1.9020    3.7990 h1        1 MOL      0.093303
     17 H6          9.5560    2.6990    1.4130 hc        1 MOL      0.067027
     18 H7          8.2150    3.7260    1.9670 hc        1 MOL      0.067027
     19 N2          9.8550    0.0860    1.8740 n         1 MOL     -0.534208
     20 C7         10.4400   -1.1340    1.5610 c3        1 MOL      0.144752
     21 C8          9.4600   -2.2710    1.0480 c         1 MOL      0.388879
     22 O5          9.7840   -3.4700    0.9700 o         1 MOL     -0.509166
     23 C9         11.2810   -1.5810    2.7380 c3        1 MOL     -0.183658
     24 H8         10.1460    0.9090    1.3680 hn        1 MOL      0.340549
     25 H9         11.1290   -1.0340    0.7130 h1        1 MOL      0.054305
     26 H10        10.7550   -1.6440    3.6940 hc        1 MOL      0.052723
     27 H11        11.7170   -2.5400    2.4800 hc        1 MOL      0.052723
     28 H12        12.1310   -0.9330    2.9570 hc        1 MOL      0.052723
     29 N3          8.2000   -1.8190    0.5970 n         1 MOL     -0.214042
     30 C10         7.1370   -2.7050    0.0710 c3        1 MOL      0.025095
     31 C11         6.6850   -2.3060   -1.3720 c         1 MOL      0.462902
     32 O6          6.5170   -1.1500   -1.7220 o         1 MOL     -0.566589
     33 C12         5.9200   -2.7050    0.9400 c3        1 MOL      0.115690
     34 C13         5.4520   -1.3670    1.5230 c         1 MOL      0.557179
     35 O7          4.9850   -1.3860    2.6380 o         1 MOL     -0.611120
     36 O8          5.5950   -0.2610    0.9430 o         1 MOL     -0.611120
     37 H13         7.9230   -0.8520    0.6770 hn        1 MOL      0.153908
     38 H14         7.5600   -3.7070   -0.0050 h1        1 MOL      0.024979
     39 H15         6.0230   -3.4090    1.7710 hc        1 MOL     -0.028814
     40 H16         5.0190   -3.0440    0.4330 hc        1 MOL     -0.028814
     41 N4          6.2880   -3.2950   -2.0790 n         1 MOL     -0.418479
     42 C14         5.6680   -3.0820   -3.3630 c3        1 MOL     -0.038135
     43 C15         4.2060   -2.7060   -3.3420 c         1 MOL      0.439819
     44 O9          3.7010   -2.0090   -4.2090 o         1 MOL     -0.524513
     45 H17         6.1820   -4.1670   -1.5790 hn        1 MOL      0.275114
     46 H18         5.8540   -3.9280   -4.0240 h1        1 MOL      0.103778
     47 H19         6.1570   -2.2700   -3.9110 h1        1 MOL      0.103778
     48 N5          3.4290   -3.1250   -2.3140 n         1 MOL     -0.415433
     49 C16         2.1920   -2.5170   -2.0650 c3        1 MOL      0.227493
     50 C17         2.4400   -1.0370   -1.7100 c         1 MOL      0.507575
     51 O10         3.4930   -0.5060   -1.4070 o         1 MOL     -0.610856
     52 C18         1.3250   -3.2650   -0.9810 c3        1 MOL     -0.106669
     53 C19         0.9740   -4.6680   -1.4330 c         1 MOL      0.620005
     54 N6          0.7570   -5.6080   -0.5270 n         1 MOL     -0.856122
     55 O11         0.7560   -4.8730   -2.5990 o         1 MOL     -0.529303
     56 H20         3.8640   -3.8370   -1.7380 hn        1 MOL      0.274074
     57 H21         1.6180   -2.6280   -2.9870 h1        1 MOL      0.066707
     58 H22         0.3590   -2.7570   -0.8660 hc        1 MOL      0.022794
     59 H23         1.8320   -3.4320   -0.0390 hc        1 MOL      0.022794
     60 H24         0.7420   -5.3900    0.4660 hn        1 MOL      0.399402
     61 H25         0.5550   -6.5480   -0.8520 hn        1 MOL      0.399402
     62 N7          1.3930   -0.2530   -1.9030 n         1 MOL     -0.556843
     63 C20         1.3510    1.1940   -1.8900 c3        1 MOL      0.319827
     64 C21         0.7410    1.7700   -3.1800 c         1 MOL      0.539158
     65 O12         1.0210    1.2620   -4.2510 o         1 MOL     -0.549455
     66 H26         0.5520   -0.7520   -2.1280 hn        1 MOL      0.300925
     67 H27         2.3780    1.5610   -1.8820 h1        1 MOL     -0.016376
     68 H28         0.8630    1.5230   -0.9810 h1        1 MOL     -0.016376
     69 N8         -0.1470    2.7860   -3.1990 n         1 MOL     -0.459179
     70 C22        -0.3170    3.8510   -2.1420 c3        1 MOL     -0.266114
     71 C23        -1.6160    3.6660   -1.4190 c         1 MOL      0.614789
     72 O13        -2.6990    3.4680   -1.9790 o         1 MOL     -0.521159
     73 C24        -0.1620    5.3060   -2.5690 c3        1 MOL      0.442545
     74 C25        -0.0720    6.3310   -1.4730 c3        1 MOL     -0.376903
     75 O14         1.0050    5.4890   -3.2450 oh        1 MOL     -0.638760
     76 H29        -0.5160    2.9740   -4.1180 hn        1 MOL      0.337767
     77 H30         0.4400    3.5470   -1.4150 h1        1 MOL      0.070344
     78 H31        -0.9160    5.5420   -3.3140 h1        1 MOL      0.077697
     79 H32         1.7070    5.1880   -2.6640 ho        1 MOL      0.382534
     80 H33        -1.0790    6.3710   -1.0580 hc        1 MOL      0.099455
     81 H34         0.6730    6.0850   -0.7180 hc        1 MOL      0.099455
     82 H35         0.1330    7.3180   -1.8720 hc        1 MOL      0.099455
     83 N9         -1.5300    3.5460   -0.0510 n         1 MOL     -0.526302
     84 C26        -2.6640    3.1230    0.8230 c3        1 MOL      0.023769
     85 C27        -3.4530    4.3390    1.2520 c         1 MOL      0.556367
     86 O15        -3.0080    5.1920    2.0470 o         1 MOL     -0.616620
     87 C28        -2.0340    2.3090    2.0290 c3        1 MOL      0.175360
     88 C29        -0.9250    1.2880    1.5330 c3        1 MOL     -0.095301
     89 C30        -3.1170    1.6380    2.8360 c3        1 MOL     -0.196445
     90 C31        -1.3660    0.1870    0.5480 c3        1 MOL      0.013240
     91 H36        -0.6690    3.6300    0.4560 hn        1 MOL      0.291820
     92 H37        -3.3330    2.4280    0.3070 h1        1 MOL      0.058410
     93 H38        -1.5450    3.0580    2.6550 hc        1 MOL     -0.022721
     94 H39        -0.6930    0.7450    2.4510 hc        1 MOL     -0.004375
     95 H40        -0.0080    1.7370    1.1710 hc        1 MOL     -0.004375
     96 H41        -2.8340    1.1920    3.7880 hc        1 MOL      0.062556
     97 H42        -3.8730    2.3980    3.0170 hc        1 MOL      0.062556
     98 H43        -3.5180    0.8240    2.2400 hc        1 MOL      0.062556
     99 H44        -2.3430   -0.2460    0.7810 hc        1 MOL     -0.000864
    100 H45        -1.3450    0.7120   -0.4100 hc        1 MOL     -0.000864
    101 H46        -0.6800   -0.6500    0.4300 hc        1 MOL     -0.000864
    102 N10        -4.6940    4.5270    0.9180 n         1 MOL     -0.415473
    103 C32        -5.4960    3.9440   -0.0820 c3        1 MOL      0.215718
    104 C33        -6.3480    2.7080    0.4240 c         1 MOL      0.652011
    105 O16        -6.5520    2.6040    1.6490 o         1 MOL     -0.595333
    106 C34        -6.4010    5.0270   -0.7200 c3        1 MOL     -0.237179
    107 C35        -7.2650    5.9950    0.1670 c         1 MOL      0.715728
    108 O17        -8.2140    6.5990   -0.3440 o         1 MOL     -0.705012
    109 O18        -6.8870    6.1570    1.3320 o         1 MOL     -0.705012
    110 H47        -5.1010    5.3290    1.3780 hn        1 MOL      0.297504
    111 H48        -4.8240    3.5700   -0.8520 h1        1 MOL      0.005387
    112 H49        -7.0770    4.5570   -1.4370 hc        1 MOL      0.014495
    113 H50        -5.8000    5.5280   -1.4860 hc        1 MOL      0.014495
    114 N11        -6.8040    1.7810   -0.4410 n         1 MOL     -0.713952
    115 C36        -7.5740    0.5900   -0.0110 c3        1 MOL      0.276852
    116 C37        -7.8270   -0.4200   -1.1730 c         1 MOL      0.380023
    117 O19        -8.1710    0.0710   -2.2280 o         1 MOL     -0.526375
    118 C38        -8.9740    1.0670    0.4810 c3        1 MOL     -0.182864
    119 C39        -9.8490   -0.0700    0.9430 ca        1 MOL      0.042962
    120 C40       -10.7850   -0.5870    0.0070 ca        1 MOL     -0.169519
    121 C41        -9.6400   -0.6030    2.2290 ca        1 MOL     -0.169519
    122 C42       -11.5770   -1.6670    0.4330 ca        1 MOL     -0.078249
    123 C43       -10.4630   -1.6340    2.6280 ca        1 MOL     -0.078249
    124 C44       -11.4430   -2.1120    1.7690 ca        1 MOL     -0.151605
    125 H51        -6.4560    1.9070   -1.3830 hn        1 MOL      0.352000
    126 H52        -7.0760    0.0570    0.7920 h1        1 MOL      0.021572
    127 H53        -9.5260    1.6190   -0.2740 hc        1 MOL      0.104395
    128 H54        -8.9600    1.8170    1.2730 hc        1 MOL      0.104395
    129 H55       -10.8540   -0.2270   -1.0100 ha        1 MOL      0.134237
    130 H56        -8.9070   -0.1000    2.8470 ha        1 MOL      0.134237
    131 H57       -12.3570   -2.0710   -0.2040 ha        1 MOL      0.089656
    132 H58       -10.4520   -2.0440    3.6330 ha        1 MOL      0.089656
    133 H59       -12.0710   -2.8680    2.2170 ha        1 MOL      0.090374
    134 N12        -7.7160   -1.7430   -0.9680 n         1 MOL      0.044591
    135 C45        -7.1740   -2.4340    0.2270 c3        1 MOL      0.030262
    136 C46        -5.6720   -2.2660    0.3470 c         1 MOL      0.401583
    137 O20        -5.0990   -1.2380   -0.0600 o         1 MOL     -0.545169
    138 C47        -7.6500   -3.9160    0.1500 c3        1 MOL     -0.027519
    139 C48        -8.8330   -3.8330   -0.8890 c3        1 MOL      0.050169
    140 C49        -8.2460   -2.7220   -1.7970 c3        1 MOL     -0.137387
    141 H60        -7.6490   -1.9390    1.0650 h1        1 MOL     -0.008764
    142 H61        -6.7770   -4.4340   -0.2520 hc        1 MOL      0.026346
    143 H62        -8.1060   -4.3850    1.0220 hc        1 MOL      0.026346
    144 H63        -8.9340   -4.7660   -1.4230 hc        1 MOL     -0.004612
    145 H64        -9.7690   -3.5340   -0.4050 hc        1 MOL     -0.004612
    146 H65        -7.5220   -3.1750   -2.4680 h1        1 MOL      0.065185
    147 H66        -9.0270   -2.2480   -2.4060 h1        1 MOL      0.065185
    148 N13        -4.9850   -3.2660    0.8630 n         1 MOL     -0.135263
    149 C50        -3.5660   -3.2270    1.2400 c3        1 MOL      0.069254
    150 C51        -3.2630   -3.9780    2.6170 c         1 MOL      0.387651
    151 O21        -2.2800   -4.7290    2.7490 o         1 MOL     -0.561447
    152 C52        -2.7340   -3.7000    0.0640 c3        1 MOL     -0.095481
    153 C53        -2.6670   -5.2090   -0.2230 c3        1 MOL     -0.094558
    154 C54        -3.9420   -5.6400   -0.8790 c         1 MOL      0.695482
    155 O22        -4.7250   -6.3110   -0.1780 o         1 MOL     -0.723536
    156 O23        -4.1460   -5.2810   -2.0580 o         1 MOL     -0.723536
    157 H67        -5.4620   -4.1410    1.0100 hn        1 MOL      0.136893
    158 H68        -3.3340   -2.1830    1.4360 h1        1 MOL      0.092705
    159 H69        -1.6900   -3.3800    0.1250 hc        1 MOL      0.053713
    160 H70        -3.0500   -3.1130   -0.7970 hc        1 MOL      0.053713
    161 H71        -2.5410   -5.8410    0.6610 hc        1 MOL      0.013401
    162 H72        -1.8170   -5.3890   -0.8710 hc        1 MOL      0.013401
    163 N14        -3.9720   -3.7220    3.6830 n         1 MOL     -0.275531
    164 C55        -4.9980   -2.7760    4.0440 c3        1 MOL     -0.100101
    165 H73        -5.2420   -2.1590    3.1800 h1        1 MOL      0.059299
    166 H74        -5.8900   -3.3130    4.3700 h1        1 MOL      0.059299
    167 H75        -4.6390   -2.1420    4.8550 h1        1 MOL      0.059299
    168 H76        -3.7110   -4.3010    4.4690 hn        1 MOL      0.263568
    169 Ca1         5.4760    1.0850   -1.1980 Ca        1 MOL      1.829183
    170 O24         4.6540    0.6500   -3.8710 oh        1 MOL     -0.840788
    171 H77         4.4900    1.1290   -4.6910 ho        1 MOL      0.416150
    172 H78         4.1030   -0.1260   -3.9330 ho        1 MOL      0.416150
    173 O25         7.2690    2.1260   -2.9020 oh        1 MOL     -0.840788
    174 H79         7.8870    2.8240   -2.7070 ho        1 MOL      0.416150
    175 H80         7.6720    1.6400   -3.6210 ho        1 MOL      0.416150
    176 O26         4.2950    3.3910   -2.2300 oh        1 MOL     -0.840788
    177 H81         4.5820    3.6800   -3.0910 ho        1 MOL      0.416150
    178 H82         4.1650    4.1920   -1.7260 ho        1 MOL      0.416150
    179 O27         3.8240    1.8680    0.8140 oh        1 MOL     -0.840788
    180 H83         2.8950    1.9200    1.0250 ho        1 MOL      0.416150
    181 H84         4.2530    1.7210    1.6640 ho        1 MOL      0.416150
@<TRIPOS>BOND
     1    1    2 1   
     2    1    4 1   
     3    1    5 1   
     4    1    6 1   
     5    2    3 2   
     6    2    7 1   
     7    7    8 1   
     8    7   15 1   
     9    8    9 1   
    10    8   11 1   
    11    8   16 1   
    12    9   10 2   
    13    9   19 1   
    14   11   12 1   
    15   11   17 1   
    16   11   18 1   
    17   12   13 1   
    18   12   14 1   
    19   19   20 1   
    20   19   24 1   
    21   20   21 1   
    22   20   23 1   
    23   20   25 1   
    24   21   22 2   
    25   21   29 1   
    26   23   26 1   
    27   23   27 1   
    28   23   28 1   
    29   29   30 1   
    30   29   37 1   
    31   30   31 1   
    32   30   33 1   
    33   30   38 1   
    34   31   32 2   
    35   31   41 1   
    36   33   34 1   
    37   33   39 1   
    38   33   40 1   
    39   34   35 1   
    40   34   36 1   
    41   41   42 1   
    42   41   45 1   
    43   42   43 1   
    44   42   46 1   
    45   42   47 1   
    46   43   44 2   
    47   43   48 1   
    48   48   49 1   
    49   48   56 1   
    50   49   50 1   
    51   49   52 1   
    52   49   57 1   
    53   50   51 2   
    54   50   62 1   
    55   52   53 1   
    56   52   58 1   
    57   52   59 1   
    58   53   54 1   
    59   53   55 2   
    60   54   60 1   
    61   54   61 1   
    62   62   63 1   
    63   62   66 1   
    64   63   64 1   
    65   63   67 1   
    66   63   68 1   
    67   64   65 2   
    68   64   69 1   
    69   69   70 1   
    70   69   76 1   
    71   70   71 1   
    72   70   73 1   
    73   70   77 1   
    74   71   72 2   
    75   71   83 1   
    76   73   74 1   
    77   73   75 1   
    78   73   78 1   
    79   74   80 1   
    80   74   81 1   
    81   74   82 1   
    82   75   79 1   
    83   83   84 1   
    84   83   91 1   
    85   84   85 1   
    86   84   87 1   
    87   84   92 1   
    88   85   86 2   
    89   85  102 1   
    90   87   88 1   
    91   87   89 1   
    92   87   93 1   
    93   88   90 1   
    94   88   94 1   
    95   88   95 1   
    96   89   96 1   
    97   89   97 1   
    98   89   98 1   
    99   90   99 1   
   100   90  100 1   
   101   90  101 1   
   102  102  103 1   
   103  102  110 1   
   104  103  104 1   
   105  103  106 1   
   106  103  111 1   
   107  104  105 2   
   108  104  114 1   
   109  106  107 1   
   110  106  112 1   
   111  106  113 1   
   112  107  108 1   
   113  107  109 1   
   114  114  115 1   
   115  114  125 1   
   116  115  116 1   
   117  115  118 1   
   118  115  126 1   
   119  116  117 2   
   120  116  134 1   
   121  118  119 1   
   122  118  127 1   
   123  118  128 1   
   124  119  120 ar  
   125  119  121 ar  
   126  120  122 ar  
   127  120  129 1   
   128  121  123 ar  
   129  121  130 1   
   130  122  124 ar  
   131  122  131 1   
   132  123  124 ar  
   133  123  132 1   
   134  124  133 1   
   135  134  135 1   
   136  134  140 1   
   137  135  136 1   
   138  135  138 1   
   139  135  141 1   
   140  136  137 2   
   141  136  148 1   
   142  138  139 1   
   143  138  142 1   
   144  138  143 1   
   145  139  140 1   
   146  139  144 1   
   147  139  145 1   
   148  140  146 1   
   149  140  147 1   
   150  148  149 1   
   151  148  157 1   
   152  149  150 1   
   153  149  152 1   
   154  149  158 1   
   155  150  151 2   
   156  150  163 1   
   157  152  153 1   
   158  152  159 1   
   159  152  160 1   
   160  153  154 1   
   161  153  161 1   
   162  153  162 1   
   163  154  155 1   
   164  154  156 1   
   165  163  164 1   
   166  163  168 1   
   167  164  165 1   
   168  164  166 1   
   169  164  167 1   
   170  170  171 1   
   171  170  172 1   
   172  173  174 1   
   173  173  175 1   
   174  176  177 1   
   175  176  178 1   
   176  179  180 1   
   177  179  181 1   
@<TRIPOS>SUBSTRUCTURE
     1 MOL         1 TEMP              0 ****  ****    0 ROOT
