@<TRIPOS>MOLECULE
MOL
  188   182     1     0     0
SMALL
resp


@<TRIPOS>ATOM
      1 C1          4.2050    3.3570    1.8270 c3        1 MOL     -0.320006
      2 C2          5.3500    3.0430    0.8940 c         1 MOL      0.726694
      3 O1          5.1970    2.2790   -0.0450 o         1 MOL     -0.565125
      4 H1          3.4980    4.0170    1.3250 hc        1 MOL      0.066924
      5 H2          3.7000    2.4320    2.1080 hc        1 MOL      0.066924
      6 H3          4.5880    3.8480    2.7210 hc        1 MOL      0.066924
      7 N1          6.5390    3.5620    1.1270 n         1 MOL     -0.500869
      8 C3          7.8530    3.2580    0.5340 c3        1 MOL     -0.215157
      9 C4          8.0390    1.7400    0.4440 c         1 MOL      0.660588
     10 O2          8.4000    1.2220   -0.5880 o         1 MOL     -0.478350
     11 C5          8.0110    3.9090   -0.8890 c3        1 MOL     -0.121183
     12 C6          7.6890    5.4010   -0.9560 c         1 MOL      0.622414
     13 O3          8.1150    6.2210   -0.0510 o         1 MOL     -0.634513
     14 O4          7.0930    5.8030   -2.0370 o         1 MOL     -0.634513
     15 H4          6.4950    4.3220    1.8000 hn        1 MOL      0.299435
     16 H5          8.6260    3.6010    1.2170 h1        1 MOL      0.112041
     17 H6          7.4930    3.4440   -1.7240 hc        1 MOL      0.085038
     18 H7          9.0220    3.7280   -1.2470 hc        1 MOL      0.085038
     19 N2          7.9270    1.1200    1.6410 n         1 MOL     -0.406527
     20 C7          8.5210   -0.2120    1.9540 c3        1 MOL     -0.036586
     21 C8          7.5780   -1.3320    1.5420 c         1 MOL      0.448923
     22 O5          7.9610   -2.4990    1.4610 o         1 MOL     -0.549097
     23 C9          8.8800   -0.3430    3.4200 c3        1 MOL     -0.017401
     24 C10         7.6800   -0.2550    4.3830 c3        1 MOL      0.226138
     25 C11         8.1890    0.0900    5.7790 c3        1 MOL     -0.036941
     26 C12         9.2260   -0.7740    6.5150 c3        1 MOL     -0.003737
     27 N3          9.0860   -2.2400    6.4590 n4        1 MOL     -0.160756
     28 H8          7.8230    1.6620    2.4850 hn        1 MOL      0.232453
     29 H9          9.4750   -0.3330    1.4410 h1        1 MOL      0.110730
     30 H10         9.5440    0.5060    3.5720 hc        1 MOL      0.013495
     31 H11         9.4290   -1.2870    3.5280 hc        1 MOL      0.013495
     32 H12         7.1650   -1.2020    4.5360 hc        1 MOL     -0.050735
     33 H13         6.9190    0.4500    4.0490 hc        1 MOL     -0.050735
     34 H14         7.2920    0.2340    6.3920 hc        1 MOL      0.021390
     35 H15         8.6310    1.0860    5.7010 hc        1 MOL      0.021390
     36 H16         9.2330   -0.4850    7.5670 hx        1 MOL      0.065627
     37 H17        10.2190   -0.5390    6.1240 hx        1 MOL      0.065627
     38 H18         8.1790   -2.4910    6.8490 hn        1 MOL      0.227425
     39 H19         9.1380   -2.6110    5.5260 hn        1 MOL      0.227425
     40 H20         9.7360   -2.6620    7.1030 hn        1 MOL      0.227425
     41 N4          6.2940   -1.1190    1.4690 n         1 MOL     -0.331472
     42 C13         5.3540   -1.9250    0.7080 c3        1 MOL      0.058717
     43 C14         5.8710   -2.0760   -0.8020 c         1 MOL      0.487768
     44 O6          6.7050   -1.2890   -1.2610 o         1 MOL     -0.414958
     45 C15         4.0140   -1.2870    0.8260 c3        1 MOL     -0.474691
     46 C16         2.9120   -2.0440    0.2480 c         1 MOL      1.018992
     47 O7          2.7070   -1.9480   -0.9600 o         1 MOL     -0.753192
     48 O8          2.0400   -2.5970    0.9410 o         1 MOL     -0.753192
     49 H21         6.0410   -0.1550    1.6250 hn        1 MOL      0.225341
     50 H22         5.2270   -2.9820    0.9730 h1        1 MOL      0.031314
     51 H23         4.1230   -0.2520    0.4990 hc        1 MOL      0.114214
     52 H24         3.7280   -1.1610    1.8760 hc        1 MOL      0.114214
     53 N5          5.3650   -3.0320   -1.5520 n         1 MOL     -0.354520
     54 C17         5.8020   -3.3780   -2.9470 c3        1 MOL     -0.065977
     55 C18         5.2590   -2.3480   -4.0330 c         1 MOL      0.485628
     56 O9          5.9710   -2.1190   -5.0450 o         1 MOL     -0.550780
     57 H25         4.8400   -3.7640   -1.1030 hn        1 MOL      0.261399
     58 H26         5.4620   -4.3750   -3.2270 h1        1 MOL      0.071115
     59 H27         6.8920   -3.3930   -2.9440 h1        1 MOL      0.071115
     60 N6          4.1500   -1.6710   -3.7520 n         1 MOL     -0.008965
     61 C19         3.4710   -0.6120   -4.5430 c3        1 MOL     -0.170086
     62 C20         3.0480    0.6280   -3.7590 c         1 MOL      0.612906
     63 O10         2.8760    1.6650   -4.4590 o         1 MOL     -0.544280
     64 C21         2.2390   -1.2130   -5.2300 c3        1 MOL     -0.064756
     65 C22         1.1330   -1.6810   -4.3500 c         1 MOL      0.397469
     66 N7         -0.0680   -1.1410   -4.5170 n         1 MOL     -0.730790
     67 O11         1.3640   -2.5280   -3.5510 o         1 MOL     -0.385135
     68 H28         3.6250   -1.8970   -2.9200 hn        1 MOL     -0.144113
     69 H29         4.0900   -0.2550   -5.3670 h1        1 MOL      0.148258
     70 H30         2.5590   -1.9980   -5.9190 hc        1 MOL      0.053728
     71 H31         1.8870   -0.4810   -5.9570 hc        1 MOL      0.053728
     72 H32        -0.1360   -0.4760   -5.2730 hn        1 MOL      0.376094
     73 H33        -0.7540   -1.4920   -3.8640 hn        1 MOL      0.376094
     74 N8          2.9470    0.6190   -2.3850 n         1 MOL     -0.423937
     75 C23         2.4680    1.7630   -1.5910 c3        1 MOL      0.009165
     76 C24         0.9670    2.0500   -1.5990 c         1 MOL      0.591507
     77 O12         0.2620    1.3830   -2.3300 o         1 MOL     -0.545704
     78 H34         2.8820   -0.2710   -1.8980 hn        1 MOL      0.306263
     79 H35         2.9670    2.6790   -1.8980 h1        1 MOL      0.103635
     80 H36         2.6160    1.5140   -0.5420 h1        1 MOL      0.103635
     81 N9          0.4900    2.9350   -0.7650 n         1 MOL     -0.542629
     82 C25        -0.8640    3.4460   -0.6750 c3        1 MOL      0.298304
     83 C26        -1.6940    2.4790    0.1320 c         1 MOL      0.455435
     84 O13        -1.0510    1.6250    0.7320 o         1 MOL     -0.511288
     85 C27        -0.8970    4.8790   -0.1830 c3        1 MOL     -0.218729
     86 C28        -2.2110    5.6260    0.0910 ca        1 MOL      0.090431
     87 C29        -3.1820    5.6930   -0.9060 ca        1 MOL     -0.228322
     88 C30        -2.5150    6.1170    1.3960 ca        1 MOL     -0.228322
     89 C31        -4.3940    6.3880   -0.6870 ca        1 MOL     -0.098783
     90 C32        -3.6500    6.9090    1.5820 ca        1 MOL     -0.098783
     91 C33        -4.5790    7.0630    0.5490 ca        1 MOL      0.193622
     92 O14        -5.5320    8.0210    0.5330 oh        1 MOL     -0.471457
     93 H37         1.1640    3.4790   -0.2530 hn        1 MOL      0.245508
     94 H38        -1.3130    3.3720   -1.6630 h1        1 MOL     -0.011094
     95 H39        -0.1420    5.5320   -0.6140 hc        1 MOL      0.093707
     96 H40        -0.4320    4.7140    0.7850 hc        1 MOL      0.093707
     97 H41        -2.9900    5.3650   -1.9170 ha        1 MOL      0.152837
     98 H42        -1.8770    5.8400    2.2260 ha        1 MOL      0.152837
     99 H43        -5.0710    6.4870   -1.5200 ha        1 MOL      0.111715
    100 H44        -3.7120    7.4530    2.5080 ha        1 MOL      0.111715
    101 H45        -5.4480    8.5280    1.3480 ho        1 MOL      0.380504
    102 N10        -3.0030    2.7570    0.2640 n         1 MOL     -0.358033
    103 C34        -3.9630    1.8640    0.8730 c3        1 MOL     -0.109455
    104 C35        -5.1710    1.5300   -0.0920 c         1 MOL      0.540524
    105 O15        -5.4790    0.3490   -0.1740 o         1 MOL     -0.456426
    106 C36        -4.4590    2.5050    2.2170 c3        1 MOL      0.281603
    107 C37        -3.3320    2.7860    3.2840 c3        1 MOL     -0.187522
    108 C38        -5.4900    1.5190    2.8650 c3        1 MOL     -0.442761
    109 C39        -3.6990    3.5930    4.5580 c3        1 MOL     -0.052288
    110 H46        -3.3430    3.5660   -0.2260 hn        1 MOL      0.202151
    111 H47        -3.5270    0.8820    1.0280 h1        1 MOL      0.085215
    112 H48        -4.9260    3.4670    1.9800 hc        1 MOL     -0.076366
    113 H49        -2.4850    3.3550    2.8910 hc        1 MOL      0.092535
    114 H50        -3.0380    1.8060    3.6790 hc        1 MOL      0.092535
    115 H51        -5.7290    1.8050    3.8900 hc        1 MOL      0.116784
    116 H52        -6.4700    1.5380    2.3830 hc        1 MOL      0.116784
    117 H53        -5.0340    0.5280    2.8480 hc        1 MOL      0.116784
    118 H54        -4.4090    3.0500    5.1720 hc        1 MOL      0.010707
    119 H55        -2.7480    3.8160    5.0250 hc        1 MOL      0.010707
    120 H56        -4.1560    4.5150    4.1810 hc        1 MOL      0.010707
    121 N11        -5.7910    2.5180   -0.7710 n         1 MOL     -0.428578
    122 C40        -6.7780    2.2550   -1.8360 c3        1 MOL      0.159391
    123 C41        -8.0390    1.4680   -1.3470 c         1 MOL      0.204514
    124 O16        -8.5090    0.5940   -2.0620 o         1 MOL     -0.467988
    125 C42        -7.1780    3.6090   -2.4590 c3        1 MOL      0.220750
    126 O17        -6.0450    4.3840   -2.8090 oh        1 MOL     -0.574167
    127 H57        -5.4300    3.4600   -0.6820 hn        1 MOL      0.247385
    128 H58        -6.3200    1.7150   -2.6700 h1        1 MOL      0.081356
    129 H59        -7.9180    4.0900   -1.8330 h1        1 MOL     -0.006577
    130 H60        -7.7050    3.3540   -3.3750 h1        1 MOL     -0.006577
    131 H61        -6.4260    5.0960   -3.3190 ho        1 MOL      0.406363
    132 N12        -8.5240    1.5950   -0.1230 n         1 MOL     -0.057360
    133 C43        -9.5870    0.8490    0.5450 c3        1 MOL      0.180437
    134 C44        -9.3000   -0.6760    0.4970 c         1 MOL      0.540518
    135 O18       -10.2270   -1.4570    0.4160 o         1 MOL     -0.533359
    136 C45       -10.9580    1.3200    0.0630 c3        1 MOL     -0.348772
    137 H62        -8.2060    2.4460    0.3210 hn        1 MOL      0.135585
    138 H63        -9.4960    1.0380    1.6230 h1        1 MOL      0.037600
    139 H64       -11.1610    1.1900   -1.0000 hc        1 MOL      0.097562
    140 H65       -11.7500    0.8900    0.6720 hc        1 MOL      0.097562
    141 H66       -10.9570    2.3980    0.2770 hc        1 MOL      0.097562
    142 N13        -8.0170   -1.1850    0.5270 n         1 MOL     -0.550225
    143 C46        -7.5860   -2.6410    0.3630 c3        1 MOL      0.340912
    144 C47        -6.4200   -3.1040    1.1470 c         1 MOL      0.436440
    145 O19        -5.6310   -2.2960    1.6370 o         1 MOL     -0.410551
    146 C48        -7.3870   -2.8520   -1.1730 c3        1 MOL     -0.255944
    147 H67        -7.2140   -0.5910    0.6840 hn        1 MOL      0.145378
    148 H68        -8.4120   -3.3020    0.6370 h1        1 MOL      0.000300
    149 H69        -8.2650   -2.5050   -1.7220 hc        1 MOL      0.083678
    150 H70        -6.5050   -2.3670   -1.5790 hc        1 MOL      0.083678
    151 H71        -7.2330   -3.9150   -1.3510 hc        1 MOL      0.083678
    152 N14        -6.3350   -4.4280    1.3350 n         1 MOL     -0.522386
    153 C49        -5.3000   -5.0690    2.1960 c3        1 MOL      0.015832
    154 C50        -5.3450   -4.6760    3.6600 c         1 MOL      0.338952
    155 O20        -4.3760   -4.7890    4.3890 o         1 MOL     -0.467084
    156 C51        -3.8800   -4.8320    1.5690 c3        1 MOL      0.241827
    157 C52        -3.7790   -5.2610    0.1010 c3        1 MOL     -0.248400
    158 C53        -2.3070   -5.3000   -0.3690 c         1 MOL      0.930770
    159 O21        -2.0450   -6.1800   -1.2050 o         1 MOL     -0.811901
    160 O22        -1.4070   -4.5150   -0.0590 o         1 MOL     -0.811901
    161 H72        -7.1790   -4.8920    1.0260 hn        1 MOL      0.298460
    162 H73        -5.4790   -6.1450    2.1330 h1        1 MOL      0.092413
    163 H74        -3.1960   -5.4340    2.1680 hc        1 MOL     -0.035337
    164 H75        -3.5420   -3.7970    1.5410 hc        1 MOL     -0.035337
    165 H76        -4.2910   -4.5250   -0.5260 hc        1 MOL      0.019174
    166 H77        -4.2360   -6.2410    0.0590 hc        1 MOL      0.019174
    167 N15        -6.4590   -4.1590    4.1760 n         1 MOL     -0.202694
    168 C54        -6.4390   -3.3410    5.3450 c3        1 MOL     -0.289911
    169 H78        -7.3480   -2.7400    5.3830 h1        1 MOL      0.124015
    170 H79        -6.3860   -3.9730    6.2310 h1        1 MOL      0.124015
    171 H80        -5.5700   -2.6830    5.3160 h1        1 MOL      0.124015
    172 H81        -7.2830   -4.2160    3.5980 hn        1 MOL      0.208779
    173 Ca1         0.6330   -3.4610   -1.1480 Ca        1 MOL      1.772078
    174 O23         2.6540   -4.8850   -2.4070 oh        1 MOL     -0.897109
    175 H82         3.4720   -5.2560   -2.0640 ho        1 MOL      0.432826
    176 H83         2.6190   -5.1820   -3.3140 ho        1 MOL      0.432826
    177 O24        -0.0780   -5.5560   -2.9500 oh        1 MOL     -0.897109
    178 H84        -0.7560   -5.8180   -2.3310 ho        1 MOL      0.432826
    179 H85        -0.1350   -6.2020   -3.6550 ho        1 MOL      0.432826
    180 O25         1.8010   -5.4830    0.2050 oh        1 MOL     -0.897109
    181 H86         2.1220   -6.2330   -0.2870 ho        1 MOL      0.432826
    182 H87         1.3670   -5.8760    0.9720 ho        1 MOL      0.432826
    183 O26        -1.7330   -2.7840   -2.5810 oh        1 MOL     -0.897109
    184 H88        -2.5160   -2.3150   -2.3130 ho        1 MOL      0.432826
    185 H89        -1.9980   -3.2770   -3.3600 ho        1 MOL      0.432826
    186 O27        -0.5610   -1.1020   -0.1190 oh        1 MOL     -0.897109
    187 H90        -1.4750   -1.4000   -0.1800 ho        1 MOL      0.432826
    188 H91        -0.6320   -0.1520    0.0010 ho        1 MOL      0.432826
@<TRIPOS>BOND
     1    1    2 1   
     2    1    4 1   
     3    1    5 1   
     4    1    6 1   
     5    2    3 2   
     6    2    7 1   
     7    7    8 1   
     8    7   15 1   
     9    8    9 1   
    10    8   11 1   
    11    8   16 1   
    12    9   10 2   
    13    9   19 1   
    14   11   12 1   
    15   11   17 1   
    16   11   18 1   
    17   12   13 1   
    18   12   14 1   
    19   19   20 1   
    20   19   28 1   
    21   20   21 1   
    22   20   23 1   
    23   20   29 1   
    24   21   22 2   
    25   21   41 1   
    26   23   24 1   
    27   23   30 1   
    28   23   31 1   
    29   24   25 1   
    30   24   32 1   
    31   24   33 1   
    32   25   26 1   
    33   25   34 1   
    34   25   35 1   
    35   26   27 1   
    36   26   36 1   
    37   26   37 1   
    38   27   38 1   
    39   27   39 1   
    40   27   40 1   
    41   41   42 1   
    42   41   49 1   
    43   42   43 1   
    44   42   45 1   
    45   42   50 1   
    46   43   44 2   
    47   43   53 1   
    48   45   46 1   
    49   45   51 1   
    50   45   52 1   
    51   46   47 1   
    52   46   48 1   
    53   53   54 1   
    54   53   57 1   
    55   54   55 1   
    56   54   58 1   
    57   54   59 1   
    58   55   56 2   
    59   55   60 1   
    60   60   61 1   
    61   60   68 1   
    62   61   62 1   
    63   61   64 1   
    64   61   69 1   
    65   62   63 2   
    66   62   74 1   
    67   64   65 1   
    68   64   70 1   
    69   64   71 1   
    70   65   66 1   
    71   65   67 2   
    72   66   72 1   
    73   66   73 1   
    74   74   75 1   
    75   74   78 1   
    76   75   76 1   
    77   75   79 1   
    78   75   80 1   
    79   76   77 2   
    80   76   81 1   
    81   81   82 1   
    82   81   93 1   
    83   82   83 1   
    84   82   85 1   
    85   82   94 1   
    86   83   84 2   
    87   83  102 1   
    88   85   86 1   
    89   85   95 1   
    90   85   96 1   
    91   86   87 ar  
    92   86   88 ar  
    93   87   89 ar  
    94   87   97 1   
    95   88   90 ar  
    96   88   98 1   
    97   89   91 ar  
    98   89   99 1   
    99   90   91 ar  
   100   90  100 1   
   101   91   92 1   
   102   92  101 1   
   103  102  103 1   
   104  102  110 1   
   105  103  104 1   
   106  103  106 1   
   107  103  111 1   
   108  104  105 2   
   109  104  121 1   
   110  106  107 1   
   111  106  108 1   
   112  106  112 1   
   113  107  109 1   
   114  107  113 1   
   115  107  114 1   
   116  108  115 1   
   117  108  116 1   
   118  108  117 1   
   119  109  118 1   
   120  109  119 1   
   121  109  120 1   
   122  121  122 1   
   123  121  127 1   
   124  122  123 1   
   125  122  125 1   
   126  122  128 1   
   127  123  124 2   
   128  123  132 1   
   129  125  126 1   
   130  125  129 1   
   131  125  130 1   
   132  126  131 1   
   133  132  133 1   
   134  132  137 1   
   135  133  134 1   
   136  133  136 1   
   137  133  138 1   
   138  134  135 2   
   139  134  142 1   
   140  136  139 1   
   141  136  140 1   
   142  136  141 1   
   143  142  143 1   
   144  142  147 1   
   145  143  144 1   
   146  143  146 1   
   147  143  148 1   
   148  144  145 2   
   149  144  152 1   
   150  146  149 1   
   151  146  150 1   
   152  146  151 1   
   153  152  153 1   
   154  152  161 1   
   155  153  154 1   
   156  153  156 1   
   157  153  162 1   
   158  154  155 2   
   159  154  167 1   
   160  156  157 1   
   161  156  163 1   
   162  156  164 1   
   163  157  158 1   
   164  157  165 1   
   165  157  166 1   
   166  158  159 1   
   167  158  160 1   
   168  167  168 1   
   169  167  172 1   
   170  168  169 1   
   171  168  170 1   
   172  168  171 1   
   173  174  175 1   
   174  174  176 1   
   175  177  178 1   
   176  177  179 1   
   177  180  181 1   
   178  180  182 1   
   179  183  184 1   
   180  183  185 1   
   181  186  187 1   
   182  186  188 1   
@<TRIPOS>SUBSTRUCTURE
     1 MOL         1 TEMP              0 ****  ****    0 ROOT
