@<TRIPOS>MOLECULE
MOL
  189   185     1     0     0
SMALL
resp


@<TRIPOS>ATOM
      1 C1         -5.6160   -3.8060    3.5130 c3        1 MOL     -0.300574
      2 C2         -4.5080   -3.2570    2.5520 c         1 MOL      0.715216
      3 O1         -4.1050   -2.1580    2.8110 o         1 MOL     -0.533866
      4 H1         -6.1760   -2.9720    3.9350 hc        1 MOL      0.059803
      5 H2         -6.2930   -4.4530    2.9540 hc        1 MOL      0.059803
      6 H3         -5.1510   -4.3750    4.3170 hc        1 MOL      0.059803
      7 N1         -4.0780   -4.0100    1.5230 n         1 MOL     -0.672438
      8 C3         -3.0080   -3.6190    0.5540 c3        1 MOL     -0.021805
      9 C4         -1.5790   -3.4520    1.0640 c         1 MOL      0.523564
     10 O2         -0.7550   -2.7410    0.5080 o         1 MOL     -0.537588
     11 C5         -3.3900   -2.3800   -0.2910 c3        1 MOL     -0.083494
     12 C6         -4.8120   -2.4770   -0.8110 c         1 MOL      0.767911
     13 O3         -5.1340   -3.5480   -1.4790 o         1 MOL     -0.824285
     14 O4         -5.7180   -1.6240   -0.5930 o         1 MOL     -0.824285
     15 H4         -4.6470   -4.8090    1.2560 hn        1 MOL      0.340278
     16 H5         -2.9360   -4.4130   -0.1940 h1        1 MOL      0.105093
     17 H6         -2.7230   -2.3550   -1.1650 hc        1 MOL      0.082226
     18 H7         -3.2300   -1.5170    0.3540 hc        1 MOL      0.082226
     19 N2         -1.2860   -4.1080    2.1630 n         1 MOL     -0.393321
     20 C7          0.0130   -3.9910    2.8120 c3        1 MOL     -0.045930
     21 C8          0.6880   -5.3320    2.5010 c         1 MOL      0.470045
     22 O5          0.3210   -6.3890    3.0870 o         1 MOL     -0.588935
     23 C9         -0.0230   -3.8350    4.3840 c3        1 MOL      0.040933
     24 C10        -1.1530   -2.9100    4.7760 c3        1 MOL     -0.043577
     25 C11         1.3880   -3.2200    4.7600 c3        1 MOL      0.012892
     26 C12        -1.0850   -2.4660    6.2680 c3        1 MOL     -0.258062
     27 H8         -1.9060   -4.7710    2.6030 hn        1 MOL      0.271874
     28 H9          0.5960   -3.1900    2.3510 h1        1 MOL      0.146006
     29 H10        -0.1380   -4.7510    4.9600 hc        1 MOL      0.028385
     30 H11        -2.1530   -3.3220    4.6370 hc        1 MOL      0.063159
     31 H12        -1.1760   -1.9820    4.2060 hc        1 MOL      0.063159
     32 H13         2.2830   -3.6950    4.3590 hc        1 MOL     -0.001392
     33 H14         1.4230   -2.2040    4.3760 hc        1 MOL     -0.001392
     34 H15         1.4990   -3.2750    5.8500 hc        1 MOL     -0.001392
     35 H16        -1.8940   -1.7880    6.5490 hc        1 MOL      0.061915
     36 H17        -1.2540   -3.3310    6.9070 hc        1 MOL      0.061915
     37 H18        -0.2330   -1.8430    6.5210 hc        1 MOL      0.061915
     38 N3          1.7600   -5.4310    1.6620 n         1 MOL     -0.349549
     39 C13         2.4670   -4.3810    0.8940 c3        1 MOL     -0.070619
     40 C14         3.1700   -5.0230   -0.3140 c         1 MOL      0.429028
     41 O6          3.8290   -6.0680   -0.2400 o         1 MOL     -0.496142
     42 C15         3.4710   -3.6790    1.9010 c3        1 MOL     -0.038987
     43 C16         4.7160   -3.0990    1.2110 c         1 MOL      0.698391
     44 O7          5.8150   -3.4330    1.6130 o         1 MOL     -0.674395
     45 O8          4.5500   -2.1560    0.3140 o         1 MOL     -0.674395
     46 H19         2.2330   -6.3210    1.6400 hn        1 MOL      0.267044
     47 H20         1.8170   -3.6080    0.4710 h1        1 MOL      0.052925
     48 H21         3.7290   -4.3840    2.6880 hc        1 MOL      0.016964
     49 H22         3.0500   -2.8300    2.4410 hc        1 MOL      0.016964
     50 N4          3.1700   -4.3350   -1.4730 n         1 MOL     -0.340168
     51 C17         3.7710   -4.7340   -2.7940 c3        1 MOL     -0.101034
     52 C18         5.1160   -4.0780   -3.1000 c         1 MOL      0.595598
     53 O9          5.8070   -4.5520   -4.0430 o         1 MOL     -0.636097
     54 H23         2.5940   -3.5110   -1.5630 hn        1 MOL      0.293686
     55 H24         3.0560   -4.2730   -3.4660 h1        1 MOL      0.078611
     56 H25         3.7760   -5.8040   -2.9810 h1        1 MOL      0.078611
     57 N5          5.5370   -2.9740   -2.5090 n         1 MOL     -0.365982
     58 C19         6.6730   -2.2190   -3.0180 c3        1 MOL      0.157495
     59 C20         7.5940   -1.7820   -1.9510 c         1 MOL      0.287120
     60 O10         8.8120   -1.7800   -2.1590 o         1 MOL     -0.602508
     61 C21         6.1600   -0.9210   -3.7500 c3        1 MOL     -0.260532
     62 C22         4.9630   -0.2170   -3.0350 c         1 MOL      0.672623
     63 O11         5.1900    0.4240   -1.9850 o         1 MOL     -0.684063
     64 O12         3.7800   -0.3870   -3.4790 o         1 MOL     -0.684063
     65 H26         5.0420   -2.6180   -1.6970 hn        1 MOL      0.278562
     66 H27         7.2780   -2.7710   -3.7330 h1        1 MOL      0.088005
     67 H28         5.9950   -1.0540   -4.8180 hc        1 MOL      0.034855
     68 H29         6.9660   -0.1840   -3.8040 hc        1 MOL      0.034855
     69 N6          7.1940   -1.4740   -0.7710 n         1 MOL      0.049038
     70 C23         7.9740   -0.9850    0.3560 c3        1 MOL     -0.250260
     71 C24         8.2470    0.5580    0.2980 c         1 MOL      0.380083
     72 O13         9.1570    1.0330    0.9790 o         1 MOL     -0.572980
     73 H30         6.2430   -1.6950   -0.4950 hn        1 MOL      0.088208
     74 H31         8.9190   -1.5090    0.5140 h1        1 MOL      0.132978
     75 H32         7.3230   -1.1450    1.2150 h1        1 MOL      0.132978
     76 N7          7.6080    1.2950   -0.5940 n         1 MOL      0.053966
     77 C25         7.5640    2.7540   -0.7840 c3        1 MOL      0.097091
     78 C26         7.0630    3.7070    0.2700 c         1 MOL      0.529440
     79 O14         7.5520    4.8520    0.4210 o         1 MOL     -0.524971
     80 C27         8.9000    3.2650   -1.3840 c3        1 MOL     -0.127445
     81 C28         9.1670    2.4930   -2.6930 c3        1 MOL      0.016501
     82 C29        10.5170    2.8130   -3.2560 c         1 MOL      0.591827
     83 N8         11.0180    2.0170   -4.1620 n         1 MOL     -0.769650
     84 O15        11.0520    3.9240   -3.0900 o         1 MOL     -0.587087
     85 H33         6.9300    0.8200   -1.1750 hn        1 MOL      0.088767
     86 H34         6.8470    2.8110   -1.6040 h1        1 MOL      0.035177
     87 H35         9.6660    3.0720   -0.6260 hc        1 MOL      0.032312
     88 H36         8.7880    4.3220   -1.6520 hc        1 MOL      0.032312
     89 H37         8.3510    2.6830   -3.3900 hc        1 MOL      0.011947
     90 H38         9.1050    1.4150   -2.5600 hc        1 MOL      0.011947
     91 H39        10.5630    1.1320   -4.3510 hn        1 MOL      0.346056
     92 H40        11.9750    2.2030   -4.4460 hn        1 MOL      0.346056
     93 N9          6.1040    3.1980    1.0680 n         1 MOL     -0.539989
     94 C30         5.6020    3.8210    2.3390 c3        1 MOL     -0.012626
     95 C31         4.0760    3.7310    2.5340 c         1 MOL      0.556169
     96 O16         3.5290    4.3950    3.4420 o         1 MOL     -0.582762
     97 C32         6.3640    3.2830    3.5190 c3        1 MOL      0.382622
     98 C33         6.1700    1.7300    3.7350 c3        1 MOL     -0.324376
     99 C34         7.8700    3.5440    3.5940 c3        1 MOL     -0.324376
    100 H41         5.8560    2.2250    0.9320 hn        1 MOL      0.245401
    101 H42         5.7920    4.8940    2.2800 h1        1 MOL      0.082658
    102 H43         6.0280    3.8400    4.3950 hc        1 MOL     -0.066910
    103 H44         5.1630    1.4810    3.3870 hc        1 MOL      0.072059
    104 H45         7.0050    1.1120    3.4220 hc        1 MOL      0.072059
    105 H46         6.0980    1.6240    4.8150 hc        1 MOL      0.072059
    106 H47         8.2930    3.2570    4.5500 hc        1 MOL      0.072059
    107 H48         8.3600    3.1490    2.6960 hc        1 MOL      0.072059
    108 H49         7.9260    4.6200    3.4530 hc        1 MOL      0.072059
    109 N10         3.3790    2.8820    1.7600 n         1 MOL     -0.454240
    110 C35         2.0080    2.4150    1.8900 c3        1 MOL      0.147525
    111 C36         1.2280    2.4130    0.5330 c         1 MOL      0.490467
    112 O17         1.7300    2.2790   -0.5610 o         1 MOL     -0.469236
    113 C37         2.1720    1.0330    2.5980 c3        1 MOL      0.048876
    114 C38         0.8610    0.5720    3.2920 c         1 MOL      0.429214
    115 N11         0.0700   -0.1050    2.5420 n         1 MOL     -0.512569
    116 O18         0.5930    0.8570    4.4610 o         1 MOL     -0.551376
    117 H50         3.8890    2.4640    0.9900 hn        1 MOL      0.261914
    118 H51         1.5280    2.9940    2.6740 h1        1 MOL      0.070907
    119 H52         2.9310    1.1270    3.3780 hc        1 MOL      0.005022
    120 H53         2.4830    0.2600    1.8910 hc        1 MOL      0.005022
    121 H54         0.3740   -0.4050    1.6240 hn        1 MOL      0.302222
    122 H55        -0.7290   -0.4090    3.0800 hn        1 MOL      0.302222
    123 N12        -0.0840    2.6130    0.6080 n         1 MOL     -0.517506
    124 C39        -1.0900    2.4260   -0.3630 c3        1 MOL      0.210996
    125 C40        -2.3770    3.0880    0.1270 c         1 MOL      0.627547
    126 O19        -2.8050    3.0650    1.2950 o         1 MOL     -0.501296
    127 C41        -1.3660    0.9100   -0.5700 c3        1 MOL     -0.470438
    128 C42        -2.2680    0.6040   -1.8060 ca        1 MOL      0.115845
    129 C43        -1.7100    0.1400   -3.0560 ca        1 MOL     -0.082893
    130 C44        -3.6890    0.5260   -1.6250 ca        1 MOL     -0.082893
    131 C45        -2.5850   -0.2950   -4.1310 ca        1 MOL     -0.443936
    132 C46        -4.5520    0.1870   -2.6950 ca        1 MOL     -0.443936
    133 C47        -4.0000   -0.2530   -3.9090 ca        1 MOL      0.461318
    134 O20        -4.8330   -0.7020   -4.8850 oh        1 MOL     -0.438242
    135 H56        -0.4420    2.7350    1.5430 hn        1 MOL      0.239615
    136 H57        -0.7010    2.7250   -1.3360 h1        1 MOL      0.089523
    137 H58        -1.8340    0.5740    0.3550 hc        1 MOL      0.162785
    138 H59        -0.3710    0.4930   -0.7580 hc        1 MOL      0.162785
    139 H60        -0.6490   -0.0350   -3.0760 ha        1 MOL      0.148918
    140 H61        -4.0650    0.7530   -0.6410 ha        1 MOL      0.148918
    141 H62        -2.1770   -0.6750   -5.0500 ha        1 MOL      0.198585
    142 H63        -5.6240    0.2170   -2.6070 ha        1 MOL      0.198585
    143 H64        -4.2580   -0.7850   -5.6450 ho        1 MOL      0.299111
    144 N13        -3.1490    3.6830   -0.8610 n         1 MOL     -0.882796
    145 C48        -4.4550    4.2440   -0.6060 c3        1 MOL      0.557703
    146 C49        -5.4330    3.9460   -1.7300 c         1 MOL      0.661543
    147 O21        -5.1010    4.2850   -2.8600 o         1 MOL     -0.599071
    148 C50        -4.3850    5.7060   -0.2440 c3        1 MOL     -0.060224
    149 C51        -5.6920    6.4710   -0.1120 c3        1 MOL     -0.110447
    150 C52        -5.4690    7.9410    0.0930 c         1 MOL      0.694726
    151 O22        -4.8270    8.1660    1.1070 o         1 MOL     -0.704382
    152 O23        -5.9140    8.7450   -0.7380 o         1 MOL     -0.704382
    153 H65        -2.8620    3.5330   -1.8160 hn        1 MOL      0.340667
    154 H66        -4.8480    3.7140    0.2530 h1        1 MOL     -0.136394
    155 H67        -3.8450    6.1740   -1.0650 hc        1 MOL      0.032806
    156 H68        -3.8360    5.7410    0.7070 hc        1 MOL      0.032806
    157 H69        -6.1920    6.1110    0.7920 hc        1 MOL     -0.009736
    158 H70        -6.3260    6.2460   -0.9710 hc        1 MOL     -0.009736
    159 N14        -6.7220    3.4880   -1.5100 n         1 MOL     -0.501708
    160 C53        -7.2650    2.6230   -0.4160 c3        1 MOL     -0.136938
    161 C54        -7.4780    3.3460    0.9290 c         1 MOL      0.535131
    162 O24        -8.0440    4.4400    1.0020 o         1 MOL     -0.525320
    163 C55        -8.6620    2.1230   -0.9790 c3        1 MOL      0.015114
    164 C56        -9.4600    1.1320   -0.1740 c3        1 MOL      0.000911
    165 C57        -9.0960   -0.3160   -0.4920 c         1 MOL      0.746635
    166 O25        -9.3100   -1.2420    0.2910 o         1 MOL     -0.786933
    167 O26        -8.6320   -0.5960   -1.6230 o         1 MOL     -0.786933
    168 H71        -7.3230    3.4780   -2.3200 hn        1 MOL      0.262563
    169 H72        -6.6900    1.7060   -0.3160 h1        1 MOL      0.169771
    170 H73        -8.5630    1.7640   -2.0000 hc        1 MOL      0.040166
    171 H74        -9.2020    3.0720   -1.1230 hc        1 MOL      0.040166
    172 H75       -10.5010    1.4380   -0.2000 hc        1 MOL     -0.035200
    173 H76        -9.1110    1.1830    0.8620 hc        1 MOL     -0.035200
    174 N15        -7.1180    2.7470    2.0670 n         1 MOL     -0.233138
    175 C58        -7.1560    3.2390    3.4350 c3        1 MOL     -0.161059
    176 H77        -6.2540    3.8140    3.6380 h1        1 MOL      0.091992
    177 H78        -8.0310    3.8750    3.5690 h1        1 MOL      0.091992
    178 H79        -7.2120    2.3950    4.1230 h1        1 MOL      0.091992
    179 H80        -6.4500    1.9920    1.9640 hn        1 MOL      0.217909
    180 Ca1        -7.9280   -2.9230   -1.3410 Ca        1 MOL      1.708155
    181 O27        -6.7220   -2.3850   -3.8160 oh        1 MOL     -0.852750
    182 H81        -5.7800   -2.1790   -3.8340 ho        1 MOL      0.407449
    183 H82        -6.9000   -2.7640   -4.6780 ho        1 MOL      0.407449
    184 O28        -8.0640   -5.4630   -2.1260 oh        1 MOL     -0.852750
    185 H83        -8.1560   -5.5960   -3.0710 ho        1 MOL      0.407449
    186 H84        -7.3750   -6.0710   -1.8570 ho        1 MOL      0.407449
    187 O29        -9.5580   -2.7890   -3.4590 oh        1 MOL     -0.852750
    188 H85        -9.6030   -2.8380   -4.4200 ho        1 MOL      0.407449
    189 H86       -10.4680   -2.6550   -3.1870 ho        1 MOL      0.407449
@<TRIPOS>BOND
     1    1    2 1   
     2    1    4 1   
     3    1    5 1   
     4    1    6 1   
     5    2    3 2   
     6    2    7 1   
     7    7    8 1   
     8    7   15 1   
     9    8    9 1   
    10    8   11 1   
    11    8   16 1   
    12    9   10 2   
    13    9   19 1   
    14   11   12 1   
    15   11   17 1   
    16   11   18 1   
    17   12   13 1   
    18   12   14 1   
    19   19   20 1   
    20   19   27 1   
    21   20   21 1   
    22   20   23 1   
    23   20   28 1   
    24   21   22 2   
    25   21   38 1   
    26   23   24 1   
    27   23   25 1   
    28   23   29 1   
    29   24   26 1   
    30   24   30 1   
    31   24   31 1   
    32   25   32 1   
    33   25   33 1   
    34   25   34 1   
    35   26   35 1   
    36   26   36 1   
    37   26   37 1   
    38   38   39 1   
    39   38   46 1   
    40   39   40 1   
    41   39   42 1   
    42   39   47 1   
    43   40   41 2   
    44   40   50 1   
    45   42   43 1   
    46   42   48 1   
    47   42   49 1   
    48   43   44 1   
    49   43   45 1   
    50   50   51 1   
    51   50   54 1   
    52   51   52 1   
    53   51   55 1   
    54   51   56 1   
    55   52   53 2   
    56   52   57 1   
    57   57   58 1   
    58   57   65 1   
    59   58   59 1   
    60   58   61 1   
    61   58   66 1   
    62   59   60 2   
    63   59   69 1   
    64   61   62 1   
    65   61   67 1   
    66   61   68 1   
    67   62   63 1   
    68   62   64 1   
    69   69   70 1   
    70   69   73 1   
    71   70   71 1   
    72   70   74 1   
    73   70   75 1   
    74   71   72 2   
    75   71   76 1   
    76   76   77 1   
    77   76   85 1   
    78   77   78 1   
    79   77   80 1   
    80   77   86 1   
    81   78   79 2   
    82   78   93 1   
    83   80   81 1   
    84   80   87 1   
    85   80   88 1   
    86   81   82 1   
    87   81   89 1   
    88   81   90 1   
    89   82   83 1   
    90   82   84 2   
    91   83   91 1   
    92   83   92 1   
    93   93   94 1   
    94   93  100 1   
    95   94   95 1   
    96   94   97 1   
    97   94  101 1   
    98   95   96 2   
    99   95  109 1   
   100   97   98 1   
   101   97   99 1   
   102   97  102 1   
   103   98  103 1   
   104   98  104 1   
   105   98  105 1   
   106   99  106 1   
   107   99  107 1   
   108   99  108 1   
   109  109  110 1   
   110  109  117 1   
   111  110  111 1   
   112  110  113 1   
   113  110  118 1   
   114  111  112 2   
   115  111  123 1   
   116  113  114 1   
   117  113  119 1   
   118  113  120 1   
   119  114  115 1   
   120  114  116 2   
   121  115  121 1   
   122  115  122 1   
   123  123  124 1   
   124  123  135 1   
   125  124  125 1   
   126  124  127 1   
   127  124  136 1   
   128  125  126 2   
   129  125  144 1   
   130  127  128 1   
   131  127  137 1   
   132  127  138 1   
   133  128  129 ar  
   134  128  130 ar  
   135  129  131 ar  
   136  129  139 1   
   137  130  132 ar  
   138  130  140 1   
   139  131  133 ar  
   140  131  141 1   
   141  132  133 ar  
   142  132  142 1   
   143  133  134 1   
   144  134  143 1   
   145  144  145 1   
   146  144  153 1   
   147  145  146 1   
   148  145  148 1   
   149  145  154 1   
   150  146  147 2   
   151  146  159 1   
   152  148  149 1   
   153  148  155 1   
   154  148  156 1   
   155  149  150 1   
   156  149  157 1   
   157  149  158 1   
   158  150  151 1   
   159  150  152 1   
   160  159  160 1   
   161  159  168 1   
   162  160  161 1   
   163  160  163 1   
   164  160  169 1   
   165  161  162 2   
   166  161  174 1   
   167  163  164 1   
   168  163  170 1   
   169  163  171 1   
   170  164  165 1   
   171  164  172 1   
   172  164  173 1   
   173  165  166 1   
   174  165  167 1   
   175  174  175 1   
   176  174  179 1   
   177  175  176 1   
   178  175  177 1   
   179  175  178 1   
   180  181  182 1   
   181  181  183 1   
   182  184  185 1   
   183  184  186 1   
   184  187  188 1   
   185  187  189 1   
@<TRIPOS>SUBSTRUCTURE
     1 MOL         1 TEMP              0 ****  ****    0 ROOT
