@<TRIPOS>MOLECULE
MOL
  192   187     1     0     0
SMALL
resp


@<TRIPOS>ATOM
      1 C1         -3.5710    2.5110   -2.2490 c3        1 MOL     -0.321619
      2 C2         -2.7780    3.3200   -1.2060 c         1 MOL      0.863440
      3 O1         -1.9790    2.6310   -0.5530 o         1 MOL     -0.493946
      4 H1         -2.8800    1.9330   -2.8620 hc        1 MOL      0.063321
      5 H2         -4.2570    1.8350   -1.7400 hc        1 MOL      0.063321
      6 H3         -4.1380    3.1930   -2.8840 hc        1 MOL      0.063321
      7 N1         -3.0660    4.5930   -0.9020 n         1 MOL     -0.974097
      8 C3         -2.2760    5.3410    0.0990 c3        1 MOL     -0.026205
      9 C4         -0.7480    5.4990   -0.1700 c         1 MOL      0.762896
     10 O2          0.0070    5.8440    0.7420 o         1 MOL     -0.525107
     11 C5         -2.5760    4.8630    1.4990 c3        1 MOL     -0.830614
     12 C6         -4.1230    4.5730    1.6740 c         1 MOL      1.054511
     13 O3         -4.5190    3.6020    2.3340 o         1 MOL     -0.779473
     14 O4         -4.9570    5.3520    1.1870 o         1 MOL     -0.779473
     15 H4         -3.7740    5.0570   -1.4570 hn        1 MOL      0.424976
     16 H5         -2.6510    6.3630    0.1050 h1        1 MOL      0.152109
     17 H6         -2.3840    5.6300    2.2520 hc        1 MOL      0.254995
     18 H7         -2.1300    3.9440    1.8870 hc        1 MOL      0.254995
     19 N2         -0.2050    5.2360   -1.4190 n         1 MOL     -0.705353
     20 C7          1.2310    5.1210   -1.8030 c3        1 MOL      0.075308
     21 C8          2.0830    6.4010   -1.8140 c         1 MOL      0.527692
     22 O5          1.5140    7.4400   -2.0060 o         1 MOL     -0.578293
     23 C9          1.4330    4.2920   -3.1540 c3        1 MOL     -0.152981
     24 C10         0.7410    4.8040   -4.4170 c3        1 MOL      0.274143
     25 C11         0.9830    2.8120   -2.9180 c3        1 MOL     -0.263135
     26 C12         1.4050    6.0500   -5.0730 c3        1 MOL     -0.032300
     27 H8         -0.8930    5.0310   -2.1290 hn        1 MOL      0.441564
     28 H9          1.7290    4.4880   -1.0560 h1        1 MOL      0.131202
     29 H10         2.5050    4.2160   -3.3130 hc        1 MOL      0.141680
     30 H11        -0.3190    4.9960   -4.2900 hc        1 MOL     -0.084591
     31 H12         0.7530    4.0590   -5.2030 hc        1 MOL     -0.084591
     32 H13         1.0770    2.3290   -3.8910 hc        1 MOL      0.090929
     33 H14         1.5870    2.2680   -2.1860 hc        1 MOL      0.090929
     34 H15        -0.0890    2.8410   -2.7040 hc        1 MOL      0.090929
     35 H16         2.4560    5.8420   -5.2470 hc        1 MOL     -0.008049
     36 H17         0.8830    6.2310   -6.0170 hc        1 MOL     -0.008049
     37 H18         1.1750    6.9450   -4.4950 hc        1 MOL     -0.008049
     38 N3          3.4160    6.3930   -1.7040 n         1 MOL     -0.414966
     39 C13         4.3970    5.2720   -1.6270 c3        1 MOL     -0.399995
     40 C14         5.2490    5.3330   -0.4230 c         1 MOL      0.754102
     41 O6          6.2970    5.9670   -0.5120 o         1 MOL     -0.522430
     42 C15         5.1820    5.2710   -2.9220 c3        1 MOL     -0.148449
     43 C16         6.2810    4.2030   -2.9680 c         1 MOL      0.702375
     44 O7          7.0890    4.2570   -3.9100 o         1 MOL     -0.702337
     45 O8          6.4220    3.3930   -1.9850 o         1 MOL     -0.702337
     46 H19         3.9430    7.2500   -1.5780 hn        1 MOL      0.315327
     47 H20         3.9030    4.2990   -1.6010 h1        1 MOL      0.094296
     48 H21         5.7080    6.1930   -3.1580 hc        1 MOL      0.061229
     49 H22         4.4830    5.1120   -3.7490 hc        1 MOL      0.061229
     50 N4          4.8860    4.8660    0.7480 n         1 MOL     -0.462112
     51 C17         5.5290    4.9480    2.0750 c3        1 MOL     -0.046628
     52 C18         6.4210    3.6510    2.3430 c         1 MOL      0.597373
     53 O9          7.6170    3.8320    2.5290 o         1 MOL     -0.556752
     54 H23         4.0110    4.3690    0.7470 hn        1 MOL      0.273462
     55 H24         4.7780    4.8800    2.8540 h1        1 MOL      0.063816
     56 H25         6.0420    5.9030    2.0650 h1        1 MOL      0.063816
     57 N5          5.9020    2.4030    2.4470 n         1 MOL     -0.547530
     58 C19         6.6230    1.2520    3.0160 c3        1 MOL      0.152036
     59 C20         7.4920    0.4250    2.0000 c         1 MOL      0.366752
     60 O10         8.4640   -0.3190    2.3810 o         1 MOL     -0.594607
     61 C21         5.5280    0.3850    3.6560 c3        1 MOL     -0.294282
     62 C22         4.2580    0.0580    2.8230 c         1 MOL      0.710041
     63 O11         3.4470    0.9900    2.8060 o         1 MOL     -0.680031
     64 O12         4.2090   -0.9440    2.0410 o         1 MOL     -0.680031
     65 H26         4.9340    2.2650    2.1960 hn        1 MOL      0.318377
     66 H27         7.2890    1.6180    3.7950 h1        1 MOL      0.077512
     67 H28         5.2420    0.8870    4.5800 hc        1 MOL      0.057038
     68 H29         6.0780   -0.5060    3.9880 hc        1 MOL      0.057038
     69 N6          7.1270    0.4400    0.7570 n         1 MOL     -0.033127
     70 C23         7.8190   -0.4190   -0.2270 c3        1 MOL     -0.303277
     71 C24         7.4990   -1.8750   -0.0360 c         1 MOL      0.511537
     72 O13         8.2530   -2.6710   -0.6470 o         1 MOL     -0.578253
     73 H30         6.2840    0.9750    0.5620 hn        1 MOL      0.197775
     74 H31         8.8640   -0.1400   -0.1510 h1        1 MOL      0.146564
     75 H32         7.4480   -0.0200   -1.1770 h1        1 MOL      0.146564
     76 N7          6.6220   -2.2620    0.8920 n         1 MOL      0.123521
     77 C25         6.0960   -3.6120    1.2190 c3        1 MOL      0.036550
     78 C26         5.7070   -4.4820   -0.0120 c         1 MOL      0.520137
     79 O14         5.9300   -5.6890   -0.0680 o         1 MOL     -0.541382
     80 C27         7.0780   -4.2990    2.1940 c3        1 MOL     -0.268227
     81 C28         7.6760   -3.4010    3.3030 c3        1 MOL     -0.083971
     82 C29         8.1400   -4.1890    4.5170 c         1 MOL      0.657078
     83 N8          9.3620   -4.6290    4.5640 n         1 MOL     -0.814357
     84 O15         7.5130   -4.3270    5.5400 o         1 MOL     -0.593645
     85 H33         6.1040   -1.5240    1.3530 hn        1 MOL     -0.033451
     86 H34         5.1690   -3.4560    1.7710 h1        1 MOL      0.110026
     87 H35         7.9790   -4.7120    1.7580 hc        1 MOL      0.084151
     88 H36         6.4830   -5.0380    2.7400 hc        1 MOL      0.084151
     89 H37         7.0820   -2.5130    3.5050 hc        1 MOL      0.054710
     90 H38         8.5100   -2.9280    2.7870 hc        1 MOL      0.054710
     91 H39        10.0250   -4.4950    3.8130 hn        1 MOL      0.354200
     92 H40         9.6040   -5.0230    5.4670 hn        1 MOL      0.354200
     93 N9          4.9730   -3.8850   -0.9410 n         1 MOL     -0.477291
     94 C30         4.5460   -4.5450   -2.2360 c3        1 MOL     -0.081669
     95 C31         3.1250   -4.1710   -2.6850 c         1 MOL      0.579440
     96 O16         2.5870   -4.8930   -3.4910 o         1 MOL     -0.573289
     97 C32         5.5130   -4.2560   -3.4040 c3        1 MOL      0.155196
     98 C33         5.6380   -2.7290   -3.6610 c3        1 MOL     -0.248039
     99 C34         6.8470   -4.8200   -3.1340 c3        1 MOL     -0.248039
    100 H41         4.7290   -2.9130   -0.8570 hn        1 MOL      0.207090
    101 H42         4.6720   -5.6140   -2.0880 h1        1 MOL      0.141408
    102 H43         5.0240   -4.6860   -4.2790 hc        1 MOL      0.008029
    103 H44         6.2670   -2.4200   -4.5000 hc        1 MOL      0.059806
    104 H45         4.6730   -2.2750   -3.9090 hc        1 MOL      0.059806
    105 H46         5.9900   -2.2060   -2.7750 hc        1 MOL      0.059806
    106 H47         7.5100   -4.6160   -3.9680 hc        1 MOL      0.059806
    107 H48         7.4290   -4.3900   -2.3100 hc        1 MOL      0.059806
    108 H49         6.6750   -5.8940   -3.1150 hc        1 MOL      0.059806
    109 N10         2.6280   -3.0560   -2.2420 n         1 MOL     -0.331397
    110 C35         1.2330   -2.5000   -2.3380 c3        1 MOL      0.031489
    111 C36         0.2410   -3.1160   -1.3190 c         1 MOL      0.599750
    112 O17         0.6410   -3.8360   -0.4160 o         1 MOL     -0.521177
    113 C37         1.4810   -1.0950   -1.9640 c3        1 MOL     -0.171691
    114 C38         0.2850   -0.2510   -2.1040 c         1 MOL      0.592579
    115 N11        -0.1900    0.3110   -1.0290 n         1 MOL     -0.668924
    116 O18        -0.1620   -0.0380   -3.2120 o         1 MOL     -0.583098
    117 H50         3.1860   -2.4470   -1.6560 hn        1 MOL      0.243152
    118 H51         0.9360   -2.6530   -3.3710 h1        1 MOL      0.084338
    119 H52         2.1600   -0.5970   -2.6560 hc        1 MOL      0.061755
    120 H53         1.7820   -1.1290   -0.9110 hc        1 MOL      0.061755
    121 H54         0.4010    0.2540   -0.2120 hn        1 MOL      0.329324
    122 H55        -0.9050    1.0230   -1.1160 hn        1 MOL      0.329324
    123 N12        -1.0940   -2.9660   -1.5140 n         1 MOL     -0.541453
    124 C39        -2.1010   -3.3330   -0.5530 c3        1 MOL      0.200619
    125 C40        -3.5040   -3.7860   -1.0480 c         1 MOL      0.506999
    126 O19        -3.9350   -3.3500   -2.1050 o         1 MOL     -0.557345
    127 C41        -2.2450   -2.1530    0.4410 c3        1 MOL      0.011291
    128 C42        -2.5940   -2.5370    1.8080 ca        1 MOL     -0.055861
    129 C43        -3.9040   -2.5730    2.2010 ca        1 MOL     -0.078868
    130 C44        -1.5640   -2.9040    2.6460 ca        1 MOL     -0.078868
    131 C45        -4.2410   -2.9840    3.5260 ca        1 MOL     -0.271323
    132 C46        -1.8200   -3.3500    3.9370 ca        1 MOL     -0.271323
    133 C47        -3.1850   -3.5070    4.3230 ca        1 MOL      0.310135
    134 O20        -3.4920   -3.9850    5.5570 oh        1 MOL     -0.509787
    135 H56        -1.3930   -2.5120   -2.3610 hn        1 MOL      0.267985
    136 H57        -1.7180   -4.1420    0.0700 h1        1 MOL      0.028416
    137 H58        -3.0370   -1.4610    0.1790 hc        1 MOL      0.039041
    138 H59        -1.3790   -1.4920    0.4560 hc        1 MOL      0.039041
    139 H60        -4.7080   -2.1590    1.6020 ha        1 MOL      0.121564
    140 H61        -0.5640   -2.8730    2.2340 ha        1 MOL      0.121564
    141 H62        -5.2340   -2.9940    3.9440 ha        1 MOL      0.158464
    142 H63        -1.0720   -3.6250    4.6710 ha        1 MOL      0.158464
    143 H64        -4.4340   -4.0020    5.7130 ho        1 MOL      0.365911
    144 N13        -4.2780   -4.3930   -0.1970 n         1 MOL     -0.509123
    145 C48        -5.6100   -4.8730   -0.4550 c3        1 MOL      0.223284
    146 C49        -6.5770   -4.2100    0.5180 c         1 MOL      0.523079
    147 O21        -6.8270   -4.7920    1.5380 o         1 MOL     -0.587390
    148 C50        -5.7350   -6.4040   -0.4240 c3        1 MOL      0.072145
    149 C51        -4.6920   -7.0160   -1.3310 c3        1 MOL     -0.326792
    150 C52        -5.2090   -8.4160   -1.6490 c         1 MOL      0.748892
    151 O22        -5.7290   -8.7240   -2.7420 o         1 MOL     -0.693308
    152 O23        -5.1340   -9.3070   -0.8030 o         1 MOL     -0.693308
    153 H65        -3.8510   -4.6290    0.6920 hn        1 MOL      0.287325
    154 H66        -5.9200   -4.5360   -1.4430 h1        1 MOL      0.027018
    155 H67        -6.7440   -6.6930   -0.6820 hc        1 MOL      0.018808
    156 H68        -5.5510   -6.7440    0.5990 hc        1 MOL      0.018808
    157 H69        -3.6840   -7.0190   -0.9080 hc        1 MOL      0.062519
    158 H70        -4.7170   -6.4530   -2.2590 hc        1 MOL      0.062519
    159 N14        -7.1750   -3.0510    0.2980 n         1 MOL     -0.706609
    160 C53        -6.9380   -2.1350   -0.8610 c3        1 MOL      0.266198
    161 C54        -7.5650   -2.6150   -2.1510 c         1 MOL      0.595345
    162 O24        -8.7190   -2.8750   -2.2170 o         1 MOL     -0.564959
    163 C55        -7.5160   -0.7200   -0.5760 c3        1 MOL     -0.207067
    164 C56        -6.6120   -0.0010    0.3660 c3        1 MOL     -0.271832
    165 C57        -7.2020    1.3260    0.8830 c         1 MOL      0.938408
    166 O25        -7.7040    2.2380    0.1260 o         1 MOL     -0.774485
    167 O26        -6.9280    1.7020    2.0100 o         1 MOL     -0.774485
    168 H71        -7.8510   -2.8150    1.0030 hn        1 MOL      0.393138
    169 H72        -5.8770   -2.0210   -1.0750 h1        1 MOL      0.052280
    170 H73        -8.5560   -0.7670   -0.2520 hc        1 MOL      0.025728
    171 H74        -7.5600   -0.1680   -1.5070 hc        1 MOL      0.025728
    172 H75        -5.6550    0.0640   -0.1510 hc        1 MOL      0.076504
    173 H76        -6.4800   -0.6510    1.2310 hc        1 MOL      0.076504
    174 N15        -6.8050   -2.5220   -3.2560 n         1 MOL     -0.327777
    175 C58        -7.1340   -3.2270   -4.4780 c3        1 MOL     -0.225842
    176 H77        -6.2210   -3.6130   -4.9310 h1        1 MOL      0.096920
    177 H78        -7.8040   -4.0570   -4.2500 h1        1 MOL      0.096920
    178 H79        -7.6230   -2.5450   -5.1720 h1        1 MOL      0.096920
    179 H80        -5.8840   -2.0900   -3.2130 hn        1 MOL      0.260988
    180 Ca1        -7.3720    4.3390    1.7600 Ca        1 MOL      1.621707
    181 O27        -7.5650    6.7790    2.7760 oh        1 MOL     -0.792850
    182 O28        -9.5240    2.9800    2.4120 oh        1 MOL     -0.792850
    183 H81        -8.1730    7.5170    2.8220 ho        1 MOL      0.374665
    184 H82       -10.4280    3.2640    2.5020 ho        1 MOL      0.374665
    185 H83        -6.6960    7.1790    2.8400 ho        1 MOL      0.374665
    186 H84        -9.4900    2.1200    2.8480 ho        1 MOL      0.374665
    187 O29        -7.2680    4.3650    4.3720 oh        1 MOL     -0.792850
    188 H85        -6.4520    4.0930    4.7920 ho        1 MOL      0.374665
    189 H86        -7.8910    4.4430    5.1010 ho        1 MOL      0.374665
    190 O30        -9.7820    5.9140    1.3040 oh        1 MOL     -0.792850
    191 H87        -9.7790    6.7310    1.7960 ho        1 MOL      0.374665
    192 H88       -10.5930    5.9350    0.8020 ho        1 MOL      0.374665
@<TRIPOS>BOND
     1    1    2 1   
     2    1    4 1   
     3    1    5 1   
     4    1    6 1   
     5    2    3 2   
     6    2    7 1   
     7    7    8 1   
     8    7   15 1   
     9    8    9 1   
    10    8   11 1   
    11    8   16 1   
    12    9   10 2   
    13    9   19 1   
    14   11   12 1   
    15   11   17 1   
    16   11   18 1   
    17   12   13 1   
    18   12   14 1   
    19   19   20 1   
    20   19   27 1   
    21   20   21 1   
    22   20   23 1   
    23   20   28 1   
    24   21   22 2   
    25   21   38 1   
    26   23   24 1   
    27   23   25 1   
    28   23   29 1   
    29   24   26 1   
    30   24   30 1   
    31   24   31 1   
    32   25   32 1   
    33   25   33 1   
    34   25   34 1   
    35   26   35 1   
    36   26   36 1   
    37   26   37 1   
    38   38   39 1   
    39   38   46 1   
    40   39   40 1   
    41   39   42 1   
    42   39   47 1   
    43   40   41 2   
    44   40   50 1   
    45   42   43 1   
    46   42   48 1   
    47   42   49 1   
    48   43   44 1   
    49   43   45 1   
    50   50   51 1   
    51   50   54 1   
    52   51   52 1   
    53   51   55 1   
    54   51   56 1   
    55   52   53 2   
    56   52   57 1   
    57   57   58 1   
    58   57   65 1   
    59   58   59 1   
    60   58   61 1   
    61   58   66 1   
    62   59   60 2   
    63   59   69 1   
    64   61   62 1   
    65   61   67 1   
    66   61   68 1   
    67   62   63 1   
    68   62   64 1   
    69   69   70 1   
    70   69   73 1   
    71   70   71 1   
    72   70   74 1   
    73   70   75 1   
    74   71   72 2   
    75   71   76 1   
    76   76   77 1   
    77   76   85 1   
    78   77   78 1   
    79   77   80 1   
    80   77   86 1   
    81   78   79 2   
    82   78   93 1   
    83   80   81 1   
    84   80   87 1   
    85   80   88 1   
    86   81   82 1   
    87   81   89 1   
    88   81   90 1   
    89   82   83 1   
    90   82   84 2   
    91   83   91 1   
    92   83   92 1   
    93   93   94 1   
    94   93  100 1   
    95   94   95 1   
    96   94   97 1   
    97   94  101 1   
    98   95   96 2   
    99   95  109 1   
   100   97   98 1   
   101   97   99 1   
   102   97  102 1   
   103   98  103 1   
   104   98  104 1   
   105   98  105 1   
   106   99  106 1   
   107   99  107 1   
   108   99  108 1   
   109  109  110 1   
   110  109  117 1   
   111  110  111 1   
   112  110  113 1   
   113  110  118 1   
   114  111  112 2   
   115  111  123 1   
   116  113  114 1   
   117  113  119 1   
   118  113  120 1   
   119  114  115 1   
   120  114  116 2   
   121  115  121 1   
   122  115  122 1   
   123  123  124 1   
   124  123  135 1   
   125  124  125 1   
   126  124  127 1   
   127  124  136 1   
   128  125  126 2   
   129  125  144 1   
   130  127  128 1   
   131  127  137 1   
   132  127  138 1   
   133  128  129 ar  
   134  128  130 ar  
   135  129  131 ar  
   136  129  139 1   
   137  130  132 ar  
   138  130  140 1   
   139  131  133 ar  
   140  131  141 1   
   141  132  133 ar  
   142  132  142 1   
   143  133  134 1   
   144  134  143 1   
   145  144  145 1   
   146  144  153 1   
   147  145  146 1   
   148  145  148 1   
   149  145  154 1   
   150  146  147 2   
   151  146  159 1   
   152  148  149 1   
   153  148  155 1   
   154  148  156 1   
   155  149  150 1   
   156  149  157 1   
   157  149  158 1   
   158  150  151 1   
   159  150  152 1   
   160  159  160 1   
   161  159  168 1   
   162  160  161 1   
   163  160  163 1   
   164  160  169 1   
   165  161  162 2   
   166  161  174 1   
   167  163  164 1   
   168  163  170 1   
   169  163  171 1   
   170  164  165 1   
   171  164  172 1   
   172  164  173 1   
   173  165  166 1   
   174  165  167 1   
   175  174  175 1   
   176  174  179 1   
   177  175  176 1   
   178  175  177 1   
   179  175  178 1   
   180  181  183 1   
   181  181  185 1   
   182  182  184 1   
   183  182  186 1   
   184  187  188 1   
   185  187  189 1   
   186  190  191 1   
   187  190  192 1   
@<TRIPOS>SUBSTRUCTURE
     1 MOL         1 TEMP              0 ****  ****    0 ROOT
