@<TRIPOS>MOLECULE
MOL
  185   180     1     0     0
SMALL
resp


@<TRIPOS>ATOM
      1 C1         -5.9930    1.1560   -3.6070 c3        1 MOL     -0.394020
      2 C2         -6.6060    1.0990   -2.1540 c         1 MOL      0.615693
      3 O1         -5.8860    0.8690   -1.2090 o         1 MOL     -0.518905
      4 H1         -5.0400    0.6250   -3.6200 hc        1 MOL      0.108189
      5 H2         -6.6790    0.6850   -4.3100 hc        1 MOL      0.108189
      6 H3         -5.8330    2.1950   -3.8950 hc        1 MOL      0.108189
      7 N1         -7.8680    1.3840   -1.9630 n         1 MOL     -0.621208
      8 C3         -8.6900    1.4200   -0.7210 c3        1 MOL      0.199294
      9 C4         -8.6660    0.2000    0.2450 c         1 MOL      0.365566
     10 O2         -9.2870    0.2390    1.3290 o         1 MOL     -0.505616
     11 C5         -8.3370    2.7270   -0.0170 c3        1 MOL     -0.189282
     12 C6         -8.3810    4.0420   -0.8450 c         1 MOL      0.726513
     13 O3         -7.7710    5.0570   -0.4500 o         1 MOL     -0.676283
     14 O4         -9.1310    4.1050   -1.8530 o         1 MOL     -0.676283
     15 H4         -8.2860    1.6560   -2.8450 hn        1 MOL      0.332082
     16 H5         -9.7250    1.4320   -1.0670 h1        1 MOL      0.045117
     17 H6         -7.3650    2.6410    0.4660 hc        1 MOL      0.068441
     18 H7         -9.0080    2.8460    0.8350 hc        1 MOL      0.068441
     19 N2         -8.0760   -0.9660   -0.1350 n         1 MOL     -0.332116
     20 C7         -7.8890   -2.1830    0.6880 c3        1 MOL      0.212581
     21 C8         -6.3540   -2.5180    0.8830 c         1 MOL      0.443760
     22 O5         -6.0290   -3.4620    1.5880 o         1 MOL     -0.544897
     23 C9         -8.7120   -3.3050    0.0750 c3        1 MOL      0.033306
     24 C10       -10.1810   -2.9700   -0.1490 c3        1 MOL      0.026074
     25 C11       -10.9810   -4.2820   -0.2780 c3        1 MOL     -0.262796
     26 C12       -12.4140   -4.0380   -0.7530 c3        1 MOL      0.220673
     27 N3        -13.0970   -5.3000   -0.6840 n4        1 MOL     -0.441518
     28 H8         -7.5780   -1.0200   -1.0110 hn        1 MOL      0.189594
     29 H9         -8.3520   -2.0330    1.6650 h1        1 MOL      0.069384
     30 H10        -8.6310   -4.1640    0.7550 hc        1 MOL     -0.024441
     31 H11        -8.3130   -3.5140   -0.9160 hc        1 MOL     -0.024441
     32 H12       -10.2760   -2.2950   -0.9970 hc        1 MOL      0.023225
     33 H13       -10.5560   -2.5400    0.7770 hc        1 MOL      0.023225
     34 H14       -11.0010   -4.6820    0.7380 hc        1 MOL      0.100600
     35 H15       -10.3800   -4.8350   -1.0080 hc        1 MOL      0.100600
     36 H16       -12.3980   -3.7070   -1.7920 hx        1 MOL      0.048489
     37 H17       -12.9530   -3.2810   -0.1750 hx        1 MOL      0.048489
     38 H18       -13.2710   -5.5250    0.2890 hn        1 MOL      0.331881
     39 H19       -13.9200   -5.2730   -1.2600 hn        1 MOL      0.331881
     40 H20       -12.5910   -5.9890   -1.2150 hn        1 MOL      0.331881
     41 N4         -5.4610   -1.8520    0.1050 n         1 MOL     -0.469736
     42 C13        -4.0080   -1.9710    0.1880 c3        1 MOL     -0.105769
     43 C14        -3.5120   -2.0170    1.6350 c         1 MOL      0.736748
     44 O6         -3.7890   -1.1450    2.4960 o         1 MOL     -0.543449
     45 C15        -3.3070   -0.9880   -0.6930 c3        1 MOL      0.035429
     46 C16        -1.8030   -1.2060   -0.6700 c         1 MOL      0.473147
     47 O7         -1.2200   -1.5760   -1.7030 o         1 MOL     -0.720217
     48 O8         -1.1390   -0.9970    0.3500 o         1 MOL     -0.720217
     49 H21        -5.8770   -1.2280   -0.5710 hn        1 MOL      0.283891
     50 H22        -3.8210   -2.9370   -0.2810 h1        1 MOL      0.079239
     51 H23        -3.5560    0.0350   -0.3840 hc        1 MOL      0.071808
     52 H24        -3.6950   -1.0820   -1.6950 hc        1 MOL      0.071808
     53 N5         -2.8690   -3.1310    1.9460 n         1 MOL     -0.245941
     54 C17        -2.3870   -3.6010    3.2460 c3        1 MOL     -0.228170
     55 C18        -1.4680   -2.7260    3.9980 c         1 MOL      0.607745
     56 O9         -1.2910   -2.9970    5.1950 o         1 MOL     -0.565455
     57 H25        -2.6790   -3.7340    1.1590 hn        1 MOL      0.184560
     58 H26        -1.8570   -4.5580    3.1450 h1        1 MOL      0.122273
     59 H27        -3.2170   -3.8140    3.9240 h1        1 MOL      0.122273
     60 N6         -0.8420   -1.7590    3.3080 n         1 MOL     -0.464011
     61 C19         0.0440   -0.7770    3.8870 c3        1 MOL      0.212418
     62 C20        -0.2890    0.6980    3.4470 c         1 MOL      0.280107
     63 O10         0.2980    1.6980    3.9660 o         1 MOL     -0.486542
     64 C21         1.5480   -1.2460    3.7060 c3        1 MOL     -0.372867
     65 C22         2.2460   -0.5720    2.5300 c         1 MOL      0.728987
     66 N7          3.1140    0.3880    2.6670 n         1 MOL     -0.762869
     67 O11         2.0300   -0.8640    1.3960 o         1 MOL     -0.710322
     68 H28        -1.0050   -1.6470    2.3140 hn        1 MOL      0.308835
     69 H29        -0.1240   -0.7260    4.9610 h1        1 MOL      0.093136
     70 H30         1.5950   -2.3220    3.5540 hc        1 MOL      0.122923
     71 H31         2.0210   -0.9610    4.6450 hc        1 MOL      0.122923
     72 H32         3.2630    0.7600    3.5910 hn        1 MOL      0.333274
     73 H33         3.6150    0.7320    1.8570 hn        1 MOL      0.333274
     74 N8         -1.4890    0.8360    2.7650 n         1 MOL     -0.049543
     75 C23        -2.1340    2.1360    2.5730 c3        1 MOL     -0.259542
     76 C24        -1.5140    2.9390    1.4830 c         1 MOL      0.473402
     77 O12        -1.5920    4.1620    1.4640 o         1 MOL     -0.501260
     78 H34        -2.0750    0.0780    2.4490 hn        1 MOL      0.059994
     79 H35        -2.1310    2.6690    3.5230 h1        1 MOL      0.149911
     80 H36        -3.1750    2.0060    2.2720 h1        1 MOL      0.149911
     81 N9         -0.8430    2.2230    0.5350 n         1 MOL     -0.292029
     82 C25        -0.2090    2.8300   -0.6650 c3        1 MOL      0.257497
     83 C26         1.1210    2.0450   -0.9060 c         1 MOL      0.026978
     84 O13         1.2210    0.8430   -0.6560 o         1 MOL     -0.090555
     85 C27        -1.1550    2.9330   -1.8570 c3        1 MOL     -0.053255
     86 C28        -2.3300    3.8780   -1.6810 ca        1 MOL      0.005822
     87 C29        -2.2180    5.2680   -1.9510 ca        1 MOL     -0.235331
     88 C30        -3.5180    3.3180   -1.1520 ca        1 MOL     -0.235331
     89 C31        -3.3980    6.0430   -1.7910 ca        1 MOL     -0.128496
     90 C32        -4.5920    4.1670   -0.8920 ca        1 MOL     -0.128496
     91 C33        -4.5750    5.5230   -1.2620 ca        1 MOL      0.324310
     92 O14        -5.6820    6.3420   -1.2410 oh        1 MOL     -0.575139
     93 H37        -0.6430    1.2360    0.6090 hn        1 MOL      0.189169
     94 H38         0.1270    3.8230   -0.3560 h1        1 MOL      0.019648
     95 H39        -1.4200    1.9190   -2.1570 hc        1 MOL     -0.000214
     96 H40        -0.4200    3.4070   -2.5110 hc        1 MOL     -0.000214
     97 H41        -1.2800    5.7500   -2.1470 ha        1 MOL      0.146957
     98 H42        -3.5830    2.2600   -0.9440 ha        1 MOL      0.146957
     99 H43        -3.3200    7.0660   -2.1320 ha        1 MOL      0.094546
    100 H44        -5.5300    3.7500   -0.5510 ha        1 MOL      0.094546
    101 H45        -6.4900    5.8760   -0.9810 ho        1 MOL      0.435990
    102 N10         2.1970    2.7350   -1.3740 n         1 MOL     -0.329002
    103 C34         3.5070    2.0990   -1.5560 c3        1 MOL     -0.009373
    104 C35         4.3570    2.0730   -0.2570 c         1 MOL      0.414603
    105 O15         4.8500    1.0250    0.2090 o         1 MOL     -0.357569
    106 C36         4.2710    2.5450   -2.8210 c3        1 MOL      0.304870
    107 C37         5.5910    3.2710   -2.5230 c3        1 MOL     -0.378833
    108 C38         3.4770    3.3530   -3.9230 c3        1 MOL     -0.203618
    109 C39         6.8380    2.5310   -2.3360 c3        1 MOL     -0.033159
    110 H46         2.0970    3.7240   -1.5320 hn        1 MOL      0.290791
    111 H47         3.3040    1.0370   -1.6940 h1        1 MOL     -0.036023
    112 H48         4.6130    1.6590   -3.3480 hc        1 MOL      0.025601
    113 H49         5.4470    4.0660   -1.7940 hc        1 MOL      0.087088
    114 H50         5.8730    3.7240   -3.4700 hc        1 MOL      0.087088
    115 H51         3.3670    4.3950   -3.6330 hc        1 MOL      0.049370
    116 H52         4.0710    3.2280   -4.8250 hc        1 MOL      0.049370
    117 H53         2.4850    2.9690   -4.1390 hc        1 MOL      0.049370
    118 H54         6.8520    1.9350   -1.4240 hc        1 MOL      0.019268
    119 H55         6.9770    1.8620   -3.1910 hc        1 MOL      0.019268
    120 H56         7.6580    3.2200   -2.1550 hc        1 MOL      0.019268
    121 N11         4.4170    3.2150    0.4590 n         1 MOL     -0.402752
    122 C40         4.9370    3.1880    1.9340 c3        1 MOL      0.068318
    123 C41         6.3470    2.7760    2.1020 c         1 MOL      0.176426
    124 O16         6.6510    2.1490    3.1460 o         1 MOL     -0.445638
    125 C42         4.7580    4.4760    2.5870 c3        1 MOL      0.164216
    126 O17         3.5360    5.1200    2.2920 oh        1 MOL     -0.633310
    127 H57         4.1880    4.0960    0.0320 hn        1 MOL      0.296820
    128 H58         4.3370    2.4660    2.4890 h1        1 MOL      0.106314
    129 H59         5.5890    5.0950    2.2590 h1        1 MOL      0.066735
    130 H60         4.6700    4.3550    3.6740 h1        1 MOL      0.066735
    131 H61         2.8050    4.7150    2.7470 ho        1 MOL      0.423535
    132 N12         7.2140    3.0200    1.0970 n         1 MOL     -0.234486
    133 C43         8.5760    2.5970    1.0590 c3        1 MOL      0.121895
    134 C44         8.8380    1.0490    1.1210 c         1 MOL      0.450399
    135 O18         9.9610    0.6270    1.4080 o         1 MOL     -0.526163
    136 C45         9.3810    3.4130    2.0960 c3        1 MOL     -0.442355
    137 H62         6.9390    3.5380    0.2770 hn        1 MOL      0.277576
    138 H63         8.9770    2.9480    0.1010 h1        1 MOL      0.056188
    139 H64        10.4360    3.1450    2.0850 hc        1 MOL      0.133424
    140 H65         9.2820    4.4750    1.8610 hc        1 MOL      0.133424
    141 H66         8.9880    3.2310    3.0900 hc        1 MOL      0.133424
    142 N13         7.8320    0.2800    0.7690 n         1 MOL     -0.237672
    143 C46         7.8150   -1.2050    0.8510 c3        1 MOL      0.219048
    144 C47         7.3830   -1.9980   -0.4170 c         1 MOL      0.381895
    145 O19         6.8190   -1.4810   -1.3600 o         1 MOL     -0.428995
    146 C48         6.7550   -1.5420    2.0080 c3        1 MOL     -0.514851
    147 H67         6.9270    0.6550    0.5320 hn        1 MOL      0.120012
    148 H68         8.8350   -1.5600    1.0430 h1        1 MOL      0.009347
    149 H69         5.7590   -1.2890    1.6270 hc        1 MOL      0.160322
    150 H70         6.7880   -2.6040    2.2730 hc        1 MOL      0.160322
    151 H71         7.0890   -0.9710    2.8660 hc        1 MOL      0.160322
    152 N14         7.5350   -3.3010   -0.4410 n         1 MOL     -0.309633
    153 C49         7.1550   -4.2520   -1.5300 c3        1 MOL     -0.325696
    154 C50         7.8860   -3.8640   -2.8140 c         1 MOL      0.552310
    155 O20         7.2690   -3.4560   -3.7640 o         1 MOL     -0.490645
    156 C51         5.6530   -4.5220   -1.6440 c3        1 MOL      0.177327
    157 C52         4.9000   -4.7910   -0.3120 c3        1 MOL      0.107826
    158 C53         3.4520   -4.9290   -0.4880 c         1 MOL      0.587673
    159 O21         3.1200   -5.8010   -1.3080 o         1 MOL     -0.695193
    160 O22         2.6880   -3.9890   -0.1040 o         1 MOL     -0.695193
    161 H72         7.7600   -3.8380    0.3850 hn        1 MOL      0.273397
    162 H73         7.4510   -5.2420   -1.1870 h1        1 MOL      0.118291
    163 H74         5.3720   -5.3950   -2.2280 hc        1 MOL      0.003623
    164 H75         5.1600   -3.7020   -2.1600 hc        1 MOL      0.003623
    165 H76         5.1090   -4.0030    0.4200 hc        1 MOL     -0.068946
    166 H77         5.3380   -5.6960    0.0960 hc        1 MOL     -0.068946
    167 N15         9.2130   -3.9200   -2.7710 n         1 MOL     -0.385558
    168 C54        10.1030   -3.2840   -3.7930 c3        1 MOL     -0.041870
    169 H78        11.0100   -3.8790   -3.9030 h1        1 MOL      0.070651
    170 H79         9.5820   -3.2360   -4.7490 h1        1 MOL      0.070651
    171 H80        10.3660   -2.2770   -3.4700 h1        1 MOL      0.070651
    172 H81         9.5920   -4.1820   -1.8740 hn        1 MOL      0.249703
    173 Ca1         1.1970   -1.9280   -0.9500 Ca        1 MOL      1.741216
    174 O23         0.9860   -3.7900   -2.8780 oh        1 MOL     -0.818473
    175 H82         0.5480   -3.9200   -3.7230 ho        1 MOL      0.401845
    176 H83         1.4880   -4.5950   -2.7460 ho        1 MOL      0.401845
    177 O24         3.8980   -1.4390   -1.0990 oh        1 MOL     -0.818473
    178 H84         4.7570   -1.7750   -1.3590 ho        1 MOL      0.401845
    179 H85         4.0900   -0.6630   -0.5670 ho        1 MOL      0.401845
    180 O25         1.4290   -0.7480   -3.3150 oh        1 MOL     -0.818473
    181 H86         0.5720   -0.3280   -3.4250 ho        1 MOL      0.401845
    182 H87         1.9110   -0.5050   -4.1070 ho        1 MOL      0.401845
    183 O26        -0.1070   -3.9650    0.2700 oh        1 MOL     -0.818473
    184 H88        -0.8410   -4.4370   -0.1160 ho        1 MOL      0.401845
    185 H89         0.4750   -4.6490    0.6080 ho        1 MOL      0.401845
@<TRIPOS>BOND
     1    1    2 1   
     2    1    4 1   
     3    1    5 1   
     4    1    6 1   
     5    2    3 2   
     6    2    7 1   
     7    7    8 1   
     8    7   15 1   
     9    8    9 1   
    10    8   11 1   
    11    8   16 1   
    12    9   10 2   
    13    9   19 1   
    14   11   12 1   
    15   11   17 1   
    16   11   18 1   
    17   12   13 1   
    18   12   14 1   
    19   19   20 1   
    20   19   28 1   
    21   20   21 1   
    22   20   23 1   
    23   20   29 1   
    24   21   22 2   
    25   21   41 1   
    26   23   24 1   
    27   23   30 1   
    28   23   31 1   
    29   24   25 1   
    30   24   32 1   
    31   24   33 1   
    32   25   26 1   
    33   25   34 1   
    34   25   35 1   
    35   26   27 1   
    36   26   36 1   
    37   26   37 1   
    38   27   38 1   
    39   27   39 1   
    40   27   40 1   
    41   41   42 1   
    42   41   49 1   
    43   42   43 1   
    44   42   45 1   
    45   42   50 1   
    46   43   44 2   
    47   43   53 1   
    48   45   46 1   
    49   45   51 1   
    50   45   52 1   
    51   46   47 1   
    52   46   48 1   
    53   53   54 1   
    54   53   57 1   
    55   54   55 1   
    56   54   58 1   
    57   54   59 1   
    58   55   56 2   
    59   55   60 1   
    60   60   61 1   
    61   60   68 1   
    62   61   62 1   
    63   61   64 1   
    64   61   69 1   
    65   62   63 2   
    66   62   74 1   
    67   64   65 1   
    68   64   70 1   
    69   64   71 1   
    70   65   66 1   
    71   65   67 2   
    72   66   72 1   
    73   66   73 1   
    74   74   75 1   
    75   74   78 1   
    76   75   76 1   
    77   75   79 1   
    78   75   80 1   
    79   76   77 2   
    80   76   81 1   
    81   81   82 1   
    82   81   93 1   
    83   82   83 1   
    84   82   85 1   
    85   82   94 1   
    86   83   84 2   
    87   83  102 1   
    88   85   86 1   
    89   85   95 1   
    90   85   96 1   
    91   86   87 ar  
    92   86   88 ar  
    93   87   89 ar  
    94   87   97 1   
    95   88   90 ar  
    96   88   98 1   
    97   89   91 ar  
    98   89   99 1   
    99   90   91 ar  
   100   90  100 1   
   101   91   92 1   
   102   92  101 1   
   103  102  103 1   
   104  102  110 1   
   105  103  104 1   
   106  103  106 1   
   107  103  111 1   
   108  104  105 2   
   109  104  121 1   
   110  106  107 1   
   111  106  108 1   
   112  106  112 1   
   113  107  109 1   
   114  107  113 1   
   115  107  114 1   
   116  108  115 1   
   117  108  116 1   
   118  108  117 1   
   119  109  118 1   
   120  109  119 1   
   121  109  120 1   
   122  121  122 1   
   123  121  127 1   
   124  122  123 1   
   125  122  125 1   
   126  122  128 1   
   127  123  124 2   
   128  123  132 1   
   129  125  126 1   
   130  125  129 1   
   131  125  130 1   
   132  126  131 1   
   133  132  133 1   
   134  132  137 1   
   135  133  134 1   
   136  133  136 1   
   137  133  138 1   
   138  134  135 2   
   139  134  142 1   
   140  136  139 1   
   141  136  140 1   
   142  136  141 1   
   143  142  143 1   
   144  142  147 1   
   145  143  144 1   
   146  143  146 1   
   147  143  148 1   
   148  144  145 2   
   149  144  152 1   
   150  146  149 1   
   151  146  150 1   
   152  146  151 1   
   153  152  153 1   
   154  152  161 1   
   155  153  154 1   
   156  153  156 1   
   157  153  162 1   
   158  154  155 2   
   159  154  167 1   
   160  156  157 1   
   161  156  163 1   
   162  156  164 1   
   163  157  158 1   
   164  157  165 1   
   165  157  166 1   
   166  158  159 1   
   167  158  160 1   
   168  167  168 1   
   169  167  172 1   
   170  168  169 1   
   171  168  170 1   
   172  168  171 1   
   173  174  175 1   
   174  174  176 1   
   175  177  178 1   
   176  177  179 1   
   177  180  181 1   
   178  180  182 1   
   179  183  184 1   
   180  183  185 1   
@<TRIPOS>SUBSTRUCTURE
     1 MOL         1 TEMP              0 ****  ****    0 ROOT
