@<TRIPOS>MOLECULE
MOL
  190   183     1     0     0
SMALL
resp


@<TRIPOS>ATOM
      1 C1          9.5080    4.3010   -4.7760 c3        1 MOL     -0.455893
      2 C2          9.7510    3.7100   -3.3920 c         1 MOL      0.813335
      3 O1         10.5980    4.2160   -2.6610 o         1 MOL     -0.622334
      4 H1          8.6940    5.0240   -4.7240 hc        1 MOL      0.121727
      5 H2         10.4140    4.7990   -5.1230 hc        1 MOL      0.121727
      6 H3          9.2420    3.5050   -5.4710 hc        1 MOL      0.121727
      7 N1          9.1760    2.5750   -2.9350 n         1 MOL     -0.723813
      8 C3          8.1700    1.8060   -3.5670 c3        1 MOL      0.292305
      9 C4          8.1620    0.3860   -3.0520 c         1 MOL      0.355734
     10 O2          9.0790   -0.0430   -2.2740 o         1 MOL     -0.451970
     11 C5          6.8010    2.4510   -3.3320 c3        1 MOL     -0.386678
     12 C6          6.3260    2.7370   -1.8510 c         1 MOL      0.763103
     13 O3          5.4270    3.5530   -1.7060 o         1 MOL     -0.623172
     14 O4          6.7960    2.1490   -0.8980 o         1 MOL     -0.623172
     15 H4          9.5390    2.2840   -2.0470 hn        1 MOL      0.377022
     16 H5          8.3740    1.7140   -4.6350 h1        1 MOL      0.048717
     17 H6          6.0710    1.8470   -3.8660 hc        1 MOL      0.069112
     18 H7          6.8210    3.4400   -3.7900 hc        1 MOL      0.069112
     19 N2          7.1620   -0.4170   -3.4880 n         1 MOL     -0.493359
     20 C7          7.1070   -1.8690   -3.5330 c3        1 MOL      0.214492
     21 C8          7.7550   -2.5200   -2.2560 c         1 MOL      0.612223
     22 O5          8.8360   -3.1260   -2.3370 o         1 MOL     -0.550872
     23 C9          7.9120   -2.1810   -4.8630 c3        1 MOL     -0.341592
     24 H8          6.4850    0.0310   -4.0870 hn        1 MOL      0.318396
     25 H9          6.1090   -2.3050   -3.5920 h1        1 MOL      0.049864
     26 H10         7.8730   -3.2730   -4.9070 hc        1 MOL      0.091161
     27 H11         7.4340   -1.7730   -5.7460 hc        1 MOL      0.091161
     28 H12         8.9700   -1.9860   -4.7320 hc        1 MOL      0.091161
     29 N3          6.9620   -2.6260   -1.2110 n         1 MOL     -0.620710
     30 C10         7.3240   -3.2230    0.1120 c3        1 MOL      0.268252
     31 C11         6.1180   -4.0140    0.8170 c         1 MOL      0.363732
     32 O6          4.9530   -4.0160    0.3410 o         1 MOL     -0.506653
     33 C12         7.7350   -2.1040    1.0130 c3        1 MOL     -0.268007
     34 C13         6.6630   -1.0030    1.3070 c         1 MOL      0.927907
     35 O7          5.4700   -1.1940    0.8950 o         1 MOL     -0.795827
     36 O8          6.9950    0.0550    1.9080 o         1 MOL     -0.795827
     37 H13         6.0530   -2.1900   -1.2000 hn        1 MOL      0.372401
     38 H14         8.1490   -3.9220   -0.0130 h1        1 MOL      0.020422
     39 H15         8.6290   -1.6420    0.5900 hc        1 MOL      0.056967
     40 H16         8.0640   -2.4700    1.9950 hc        1 MOL      0.056967
     41 N4          6.3720   -4.5950    1.9790 n         1 MOL     -0.261859
     42 C14         5.4730   -5.1390    2.8880 c3        1 MOL     -0.213304
     43 C15         4.4570   -4.1120    3.5470 c         1 MOL      0.401634
     44 O9          3.7320   -4.5540    4.4120 o         1 MOL     -0.515588
     45 H17         7.3580   -4.6740    2.1910 hn        1 MOL      0.229906
     46 H18         5.9780   -5.6260    3.7230 h1        1 MOL      0.130076
     47 H19         4.8770   -5.9450    2.4450 h1        1 MOL      0.130076
     48 N5          4.4170   -2.8500    3.1780 n         1 MOL     -0.047904
     49 C16         3.2640   -1.9820    3.5550 c3        1 MOL     -0.098492
     50 C17         2.2420   -2.0600    2.4060 c         1 MOL      0.514774
     51 O10         1.0640   -1.8280    2.6290 o         1 MOL     -0.539297
     52 C18         3.7110   -0.5000    3.6310 c3        1 MOL     -0.227711
     53 C19         4.7590   -0.2900    4.7360 c         1 MOL      0.623727
     54 N6          5.9360   -0.0050    4.3810 n         1 MOL     -0.760011
     55 O11         4.5030   -0.5810    5.9260 o         1 MOL     -0.623172
     56 H20         5.0620   -2.4970    2.4790 hn        1 MOL      0.058888
     57 H21         2.8030   -2.2910    4.4940 h1        1 MOL      0.150196
     58 H22         2.8720    0.1010    3.9800 hc        1 MOL      0.116884
     59 H23         4.0340    0.0130    2.7220 hc        1 MOL      0.116884
     60 H24         6.2090   -0.0610    3.4100 hn        1 MOL      0.323122
     61 H25         6.5570    0.0660    5.1670 hn        1 MOL      0.323122
     62 N7          2.5910   -2.4350    1.1820 n         1 MOL     -0.382482
     63 C20         1.7570   -2.8620    0.0210 c3        1 MOL      0.049351
     64 C21         1.0880   -4.2410    0.1350 c         1 MOL      0.784827
     65 O12         1.4930   -4.9750    1.0040 o         1 MOL     -0.565778
     66 H26         3.5800   -2.6050    1.1200 hn        1 MOL      0.358523
     67 H27         2.3840   -2.8850   -0.8700 h1        1 MOL      0.032970
     68 H28         1.0900   -2.0240   -0.1670 h1        1 MOL      0.032970
     69 N8          0.1310   -4.6760   -0.6850 n         1 MOL     -0.779961
     70 C22        -0.5960   -3.8200   -1.6950 c3        1 MOL      0.193941
     71 C23        -1.7670   -2.9850   -1.0810 c         1 MOL      0.492384
     72 O13        -2.5070   -3.3710   -0.1230 o         1 MOL     -0.518113
     73 C24        -1.1220   -4.7110   -2.8250 c3        1 MOL      0.360974
     74 C25        -1.9490   -3.9420   -3.8770 c3        1 MOL     -0.425477
     75 O14         0.0230   -5.2900   -3.4210 oh        1 MOL     -0.652597
     76 H29        -0.2940   -5.5690   -0.5030 hn        1 MOL      0.365147
     77 H30        -0.0010   -3.0070   -2.1150 h1        1 MOL      0.059656
     78 H31        -1.7500   -5.5240   -2.4630 h1        1 MOL      0.006669
     79 H32        -0.1770   -6.1910   -3.6750 ho        1 MOL      0.388863
     80 H33        -2.4030   -4.6610   -4.5630 hc        1 MOL      0.113858
     81 H34        -2.7620   -3.4710   -3.3200 hc        1 MOL      0.113858
     82 H35        -1.3610   -3.2420   -4.4610 hc        1 MOL      0.113858
     83 N9         -1.9870   -1.6930   -1.5210 n         1 MOL     -0.610373
     84 C26        -3.0470   -0.8530   -0.9690 c3        1 MOL      0.021784
     85 C27        -3.7430   -0.2870   -2.2790 c         1 MOL      0.593715
     86 O15        -3.0320    0.2510   -3.1060 o         1 MOL     -0.549032
     87 C28        -2.4680    0.3120   -0.1410 c3        1 MOL      0.066204
     88 C29        -1.9270   -0.1940    1.2310 c3        1 MOL      0.387361
     89 C30        -3.6040    1.3210    0.1770 c3        1 MOL     -0.257291
     90 C31        -0.9390    0.8100    1.7360 c3        1 MOL     -0.293987
     91 H36        -1.5820   -1.3880   -2.3900 hn        1 MOL      0.270135
     92 H37        -3.6890   -1.5050   -0.3770 h1        1 MOL      0.094403
     93 H38        -1.7030    0.8280   -0.7150 hc        1 MOL      0.025818
     94 H39        -1.3560   -1.1260    1.2150 hc        1 MOL     -0.055860
     95 H40        -2.7640   -0.3020    1.9130 hc        1 MOL     -0.055860
     96 H41        -3.2100    2.0470    0.8890 hc        1 MOL      0.066336
     97 H42        -3.9960    1.7950   -0.7190 hc        1 MOL      0.066336
     98 H43        -4.4080    0.8150    0.7270 hc        1 MOL      0.066336
     99 H44        -0.5750    0.4640    2.7090 hc        1 MOL      0.034404
    100 H45        -0.1500    0.8740    0.9810 hc        1 MOL      0.034404
    101 H46        -1.4680    1.7200    2.0260 hc        1 MOL      0.034404
    102 N10        -5.0710   -0.3770   -2.4490 n         1 MOL     -0.579772
    103 C32        -6.0450   -0.8770   -1.4960 c3        1 MOL      0.575271
    104 C33        -7.4800   -0.3690   -1.5590 c         1 MOL      0.407845
    105 O16        -7.7950    0.1250   -2.6050 o         1 MOL     -0.557383
    106 C34        -6.1230   -2.3820   -1.7270 c3        1 MOL     -0.424350
    107 C35        -6.5790   -3.1850   -0.5150 c         1 MOL      0.995308
    108 O17        -6.5900   -4.4130   -0.5500 o         1 MOL     -0.724607
    109 O18        -6.7070   -2.6430    0.6220 o         1 MOL     -0.724607
    110 H47        -5.4800    0.0650   -3.2620 hn        1 MOL      0.340235
    111 H48        -5.6460   -0.6720   -0.5020 h1        1 MOL     -0.187481
    112 H49        -5.1130   -2.7660   -1.8850 hc        1 MOL      0.049884
    113 H50        -6.6320   -2.7110   -2.6230 hc        1 MOL      0.049884
    114 N11        -8.3040   -0.5300   -0.5010 n         1 MOL     -0.373408
    115 C36        -9.5820    0.1510   -0.3900 c3        1 MOL      0.533114
    116 C37        -9.7970    0.4940    1.1260 c         1 MOL     -0.070104
    117 O19        -9.3760   -0.3360    1.9570 o         1 MOL     -0.381631
    118 C38       -10.6430   -0.7890   -1.0740 c3        1 MOL     -0.313923
    119 C39       -10.7590   -2.2030   -0.5050 ca        1 MOL      0.217905
    120 C40       -10.1690   -3.2810   -1.1730 ca        1 MOL     -0.261037
    121 C41       -11.3920   -2.4580    0.7100 ca        1 MOL     -0.261037
    122 C42       -10.1600   -4.5950   -0.6200 ca        1 MOL     -0.149742
    123 C43       -11.4080   -3.7450    1.2670 ca        1 MOL     -0.149742
    124 C44       -10.7900   -4.8510    0.6310 ca        1 MOL     -0.020171
    125 H51        -8.0140   -1.0500    0.3130 hn        1 MOL      0.268636
    126 H52        -9.5060    1.1170   -0.8930 h1        1 MOL     -0.113585
    127 H53       -10.3280   -0.8840   -2.1190 hc        1 MOL      0.071771
    128 H54       -11.5740   -0.2320   -1.0070 hc        1 MOL      0.071771
    129 H55        -9.4830   -3.1380   -2.0030 ha        1 MOL      0.147907
    130 H56       -11.7590   -1.5740    1.2120 ha        1 MOL      0.147907
    131 H57        -9.5520   -5.3680   -1.0600 ha        1 MOL      0.112970
    132 H58       -11.8390   -3.9970    2.2210 ha        1 MOL      0.112970
    133 H59       -10.8940   -5.8570    1.0250 ha        1 MOL      0.069231
    134 N12       -10.4100    1.6380    1.4440 n         1 MOL      0.205523
    135 C45       -10.7980    2.7330    0.5890 c3        1 MOL     -0.082133
    136 C46        -9.6480    3.6150    0.1640 c         1 MOL      0.583261
    137 O20        -9.7240    4.4900   -0.7160 o         1 MOL     -0.578637
    138 C47       -11.8020    3.5000    1.5070 c3        1 MOL     -0.275721
    139 C48       -11.2390    3.3050    2.9140 c3        1 MOL      0.157951
    140 C49       -10.7020    1.8800    2.8700 c3        1 MOL     -0.284105
    141 H60       -11.2890    2.3080   -0.2950 h1        1 MOL      0.099616
    142 H61       -11.7870    4.5610    1.2620 hc        1 MOL      0.077682
    143 H62       -12.7650    3.0140    1.3480 hc        1 MOL      0.077682
    144 H63       -10.4290    4.0120    2.9660 hc        1 MOL     -0.004955
    145 H64       -11.9500    3.4900    3.7270 hc        1 MOL     -0.004955
    146 H65        -9.8030    1.9690    3.4880 h1        1 MOL      0.108274
    147 H66       -11.4530    1.1760    3.2240 h1        1 MOL      0.108274
    148 N13        -8.4070    3.4480    0.7190 n         1 MOL     -0.406656
    149 C50        -7.2610    4.2850    0.4130 c3        1 MOL     -0.001192
    150 C51        -6.3280    4.4870    1.6590 c         1 MOL      0.333118
    151 O21        -6.2020    3.5450    2.4190 o         1 MOL     -0.505628
    152 C52        -6.3910    3.5840   -0.6080 c3        1 MOL     -0.040291
    153 C53        -7.0520    3.5880   -2.0010 c3        1 MOL     -0.365838
    154 C54        -5.9830    3.5900   -3.1010 c         1 MOL      0.780144
    155 O22        -5.5540    4.7030   -3.4580 o         1 MOL     -0.689071
    156 O23        -5.5390    2.5270   -3.6090 o         1 MOL     -0.689071
    157 H67        -8.3230    2.7920    1.4730 hn        1 MOL      0.316129
    158 H68        -7.5180    5.2590   -0.0050 h1        1 MOL      0.122739
    159 H69        -6.2900    2.5740   -0.1960 hc        1 MOL      0.081031
    160 H70        -5.5000    4.2030   -0.6790 hc        1 MOL      0.081031
    161 H71        -7.5960    4.5390   -2.0940 hc        1 MOL      0.104098
    162 H72        -7.7340    2.7690   -2.1810 hc        1 MOL      0.104098
    163 N14        -5.6930    5.6550    1.7680 n         1 MOL     -0.314115
    164 C55        -5.6240    6.8450    0.8390 c3        1 MOL     -0.149263
    165 H73        -6.6180    7.0560    0.4450 h1        1 MOL      0.086920
    166 H74        -5.2600    7.7140    1.3880 h1        1 MOL      0.086920
    167 H75        -4.9460    6.6250    0.0160 h1        1 MOL      0.086920
    168 H76        -5.1950    5.7970    2.6290 hn        1 MOL      0.268649
    169 Ca1         7.5510    2.6850    1.4740 Ca        1 MOL      1.754748
    170 O24         8.5300    4.5970   -0.1140 oh        1 MOL     -0.754366
    171 H77         8.6620    4.3730   -1.0330 ho        1 MOL      0.344563
    172 H78         8.2880    5.5320   -0.1360 ho        1 MOL      0.344563
    173 O25         5.7540    4.6630    0.6910 oh        1 MOL     -0.754366
    174 H79         5.1550    5.4060    0.7710 ho        1 MOL      0.344563
    175 H80         5.6110    4.3290   -0.2060 ho        1 MOL      0.344563
    176 O26         8.5110    1.7080    3.9480 oh        1 MOL     -0.754366
    177 H81         8.7890    0.8120    4.1650 ho        1 MOL      0.344563
    178 H82         8.5400    2.1800    4.7830 ho        1 MOL      0.344563
    179 O27         9.3970    1.3920    0.1060 oh        1 MOL     -0.754366
    180 H83        10.3340    1.5430   -0.0660 ho        1 MOL      0.344563
    181 H84         9.0970    0.8890   -0.6380 ho        1 MOL      0.344563
    182 O28         9.9420    3.8150    2.1380 oh        1 MOL     -0.754366
    183 H85        10.7540    3.3180    2.2540 ho        1 MOL      0.344563
    184 H86        10.0190    4.5560    2.7360 ho        1 MOL      0.344563
    185 O29         5.0930    2.4400    2.4560 oh        1 MOL     -0.754366
    186 H87         4.8770    2.3510    3.3880 ho        1 MOL      0.344563
    187 H88         4.4880    3.1050    2.1330 ho        1 MOL      0.344563
    188 O30         7.5810    4.5040    3.4540 oh        1 MOL     -0.754366
    189 H89         7.5950    5.4590    3.4990 ho        1 MOL      0.344563
    190 H90         7.8730    4.2130    4.3200 ho        1 MOL      0.344563
@<TRIPOS>BOND
     1    1    2 1   
     2    1    4 1   
     3    1    5 1   
     4    1    6 1   
     5    2    3 2   
     6    2    7 1   
     7    7    8 1   
     8    7   15 1   
     9    8    9 1   
    10    8   11 1   
    11    8   16 1   
    12    9   10 2   
    13    9   19 1   
    14   11   12 1   
    15   11   17 1   
    16   11   18 1   
    17   12   13 1   
    18   12   14 1   
    19   19   20 1   
    20   19   24 1   
    21   20   21 1   
    22   20   23 1   
    23   20   25 1   
    24   21   22 2   
    25   21   29 1   
    26   23   26 1   
    27   23   27 1   
    28   23   28 1   
    29   29   30 1   
    30   29   37 1   
    31   30   31 1   
    32   30   33 1   
    33   30   38 1   
    34   31   32 2   
    35   31   41 1   
    36   33   34 1   
    37   33   39 1   
    38   33   40 1   
    39   34   35 1   
    40   34   36 1   
    41   41   42 1   
    42   41   45 1   
    43   42   43 1   
    44   42   46 1   
    45   42   47 1   
    46   43   44 2   
    47   43   48 1   
    48   48   49 1   
    49   48   56 1   
    50   49   50 1   
    51   49   52 1   
    52   49   57 1   
    53   50   51 2   
    54   50   62 1   
    55   52   53 1   
    56   52   58 1   
    57   52   59 1   
    58   53   54 1   
    59   53   55 2   
    60   54   60 1   
    61   54   61 1   
    62   62   63 1   
    63   62   66 1   
    64   63   64 1   
    65   63   67 1   
    66   63   68 1   
    67   64   65 2   
    68   64   69 1   
    69   69   70 1   
    70   69   76 1   
    71   70   71 1   
    72   70   73 1   
    73   70   77 1   
    74   71   72 2   
    75   71   83 1   
    76   73   74 1   
    77   73   75 1   
    78   73   78 1   
    79   74   80 1   
    80   74   81 1   
    81   74   82 1   
    82   75   79 1   
    83   83   84 1   
    84   83   91 1   
    85   84   85 1   
    86   84   87 1   
    87   84   92 1   
    88   85   86 2   
    89   85  102 1   
    90   87   88 1   
    91   87   89 1   
    92   87   93 1   
    93   88   90 1   
    94   88   94 1   
    95   88   95 1   
    96   89   96 1   
    97   89   97 1   
    98   89   98 1   
    99   90   99 1   
   100   90  100 1   
   101   90  101 1   
   102  102  103 1   
   103  102  110 1   
   104  103  104 1   
   105  103  106 1   
   106  103  111 1   
   107  104  105 2   
   108  104  114 1   
   109  106  107 1   
   110  106  112 1   
   111  106  113 1   
   112  107  108 1   
   113  107  109 1   
   114  114  115 1   
   115  114  125 1   
   116  115  116 1   
   117  115  118 1   
   118  115  126 1   
   119  116  117 2   
   120  116  134 1   
   121  118  119 1   
   122  118  127 1   
   123  118  128 1   
   124  119  120 ar  
   125  119  121 ar  
   126  120  122 ar  
   127  120  129 1   
   128  121  123 ar  
   129  121  130 1   
   130  122  124 ar  
   131  122  131 1   
   132  123  124 ar  
   133  123  132 1   
   134  124  133 1   
   135  134  135 1   
   136  134  140 1   
   137  135  136 1   
   138  135  138 1   
   139  135  141 1   
   140  136  137 2   
   141  136  148 1   
   142  138  139 1   
   143  138  142 1   
   144  138  143 1   
   145  139  140 1   
   146  139  144 1   
   147  139  145 1   
   148  140  146 1   
   149  140  147 1   
   150  148  149 1   
   151  148  157 1   
   152  149  150 1   
   153  149  152 1   
   154  149  158 1   
   155  150  151 2   
   156  150  163 1   
   157  152  153 1   
   158  152  159 1   
   159  152  160 1   
   160  153  154 1   
   161  153  161 1   
   162  153  162 1   
   163  154  155 1   
   164  154  156 1   
   165  163  164 1   
   166  163  168 1   
   167  164  165 1   
   168  164  166 1   
   169  164  167 1   
   170  170  171 1   
   171  170  172 1   
   172  173  174 1   
   173  173  175 1   
   174  176  177 1   
   175  176  178 1   
   176  179  180 1   
   177  179  181 1   
   178  182  183 1   
   179  182  184 1   
   180  185  186 1   
   181  185  187 1   
   182  188  189 1   
   183  188  190 1   
@<TRIPOS>SUBSTRUCTURE
     1 MOL         1 TEMP              0 ****  ****    0 ROOT
