@<TRIPOS>MOLECULE
MOL
  192   187     1     0     0
SMALL
resp


@<TRIPOS>ATOM
      1 C1         -1.1180   -6.6120    4.6360 c3        1 MOL     -0.397731
      2 C2         -1.5490   -6.1280    3.1920 c         1 MOL      0.603950
      3 O1         -1.6350   -6.8770    2.2510 o         1 MOL     -0.571558
      4 H1         -0.2800   -6.0090    4.9850 hc        1 MOL      0.107968
      5 H2         -1.9580   -6.5010    5.3220 hc        1 MOL      0.107968
      6 H3         -0.8200   -7.6600    4.5940 hc        1 MOL      0.107968
      7 N1         -1.8540   -4.8620    3.0040 n         1 MOL     -0.442010
      8 C3         -2.1230   -4.2800    1.6450 c3        1 MOL      0.066151
      9 C4         -0.8690   -3.7530    0.8970 c         1 MOL      0.815785
     10 O2         -1.0220   -3.5690   -0.3060 o         1 MOL     -0.687532
     11 C5         -3.1120   -3.1260    1.7030 c3        1 MOL     -0.400545
     12 C6         -2.6710   -2.0590    2.6020 c         1 MOL      0.881517
     13 O3         -2.4620   -0.9100    2.0990 o         1 MOL     -0.742451
     14 O4         -2.3180   -2.2420    3.8100 o         1 MOL     -0.742451
     15 H4         -1.8290   -4.1630    3.7350 hn        1 MOL      0.246471
     16 H5         -2.5430   -5.0710    1.0170 h1        1 MOL      0.136786
     17 H6         -4.0160   -3.4960    2.1970 hc        1 MOL      0.106821
     18 H7         -3.2980   -2.7760    0.6910 hc        1 MOL      0.106821
     19 N2          0.3330   -3.5690    1.4890 n         1 MOL     -0.795453
     20 C7          1.5290   -2.9060    0.8620 c3        1 MOL      0.601801
     21 C8          2.1740   -3.8350   -0.1960 c         1 MOL      0.183512
     22 O5          2.1730   -5.0610    0.0020 o         1 MOL     -0.519834
     23 C9          2.6510   -2.5910    1.9250 c3        1 MOL     -0.035905
     24 C10         1.9820   -1.7530    3.0260 c3        1 MOL     -0.180591
     25 C11         1.2130   -0.4830    2.6670 c3        1 MOL      0.060008
     26 C12         0.6450    0.3030    3.8030 c3        1 MOL      0.108505
     27 N3         -0.6050   -0.2130    4.3440 n4        1 MOL     -0.540615
     28 H8          0.5250   -4.0320    2.3650 hn        1 MOL      0.333576
     29 H9          1.1930   -2.0080    0.3390 h1        1 MOL      0.098843
     30 H10         3.4600   -2.0220    1.4780 hc        1 MOL      0.059529
     31 H11         2.8680   -3.5410    2.4130 hc        1 MOL      0.059529
     32 H12         2.8190   -1.4810    3.6570 hc        1 MOL      0.019297
     33 H13         1.2810   -2.3560    3.6090 hc        1 MOL      0.019297
     34 H14         0.4850   -0.7250    1.8870 hc        1 MOL      0.008830
     35 H15         1.9700    0.1570    2.2180 hc        1 MOL      0.008830
     36 H16         0.4710    1.3180    3.4480 hx        1 MOL      0.041658
     37 H17         1.4010    0.3200    4.5860 hx        1 MOL      0.041658
     38 H18        -1.1940   -0.4630    3.5640 hn        1 MOL      0.356526
     39 H19        -0.4250   -1.0830    4.8420 hn        1 MOL      0.356526
     40 H20        -0.9990    0.4130    5.0220 hn        1 MOL      0.356526
     41 N4          2.5570   -3.4220   -1.4060 n         1 MOL     -0.354797
     42 C13         2.7420   -2.0070   -2.0040 c3        1 MOL     -0.119824
     43 C14         3.2780   -0.9190   -1.1100 c         1 MOL      0.611514
     44 O6          2.4920   -0.2120   -0.4980 o         1 MOL     -0.697488
     45 C15         1.4050   -1.5470   -2.5700 c3        1 MOL     -0.082480
     46 C16         0.9420   -2.5940   -3.6680 c         1 MOL      0.590359
     47 O7         -0.1340   -3.2300   -3.5380 o         1 MOL     -0.681152
     48 O8          1.4810   -2.5690   -4.8120 o         1 MOL     -0.681152
     49 H21         2.7140   -4.1840   -2.0530 hn        1 MOL      0.291478
     50 H22         3.4900   -2.0170   -2.8080 h1        1 MOL      0.105423
     51 H23         1.4170   -0.6440   -3.1830 hc        1 MOL      0.076339
     52 H24         0.6210   -1.5480   -1.8160 hc        1 MOL      0.076339
     53 N5          4.5860   -0.7700   -0.9500 n         1 MOL     -0.379285
     54 C17         5.6570   -1.7610   -1.1900 c3        1 MOL     -0.040724
     55 C18         6.1320   -2.4940    0.0580 c         1 MOL      0.467604
     56 O9          5.5020   -3.3640    0.6300 o         1 MOL     -0.508161
     57 H25         4.8420    0.1530   -0.6160 hn        1 MOL      0.312425
     58 H26         6.4180   -1.3390   -1.8530 h1        1 MOL      0.073632
     59 H27         5.2260   -2.5390   -1.8200 h1        1 MOL      0.073632
     60 N6          7.3950   -2.3030    0.4000 n         1 MOL     -0.295040
     61 C19         8.5170   -1.4930   -0.2510 c3        1 MOL     -0.075520
     62 C20         8.2670    0.0550   -0.0140 c         1 MOL      0.370986
     63 O10         7.7460    0.4090    1.0220 o         1 MOL     -0.405676
     64 C21         9.8300   -2.0060    0.3110 c3        1 MOL     -0.163449
     65 C22         9.7770   -2.0180    1.7770 c         1 MOL      0.727539
     66 O11         9.3920   -3.0060    2.4250 o         1 MOL     -0.702054
     67 O12        10.2620   -1.0090    2.3780 o         1 MOL     -0.702054
     68 H28         7.6720   -2.8640    1.1900 hn        1 MOL      0.231983
     69 H29         8.5160   -1.6280   -1.3380 h1        1 MOL      0.071346
     70 H30        10.7350   -1.4870    0.0090 hc        1 MOL      0.040346
     71 H31        10.0510   -3.0000   -0.0850 hc        1 MOL      0.040346
     72 N7          8.6320    0.9410   -0.9770 n         1 MOL     -0.373374
     73 C23         8.0660    2.3180   -1.0000 c3        1 MOL      0.051506
     74 C24         6.6120    2.5630   -1.6090 c         1 MOL      0.381940
     75 O13         5.9850    1.5800   -1.9860 o         1 MOL     -0.479888
     76 H32         9.2240    0.6260   -1.7330 hn        1 MOL      0.287750
     77 H33         8.7950    2.9630   -1.4950 h1        1 MOL      0.043338
     78 H34         7.9930    2.7470    0.0020 h1        1 MOL      0.043338
     79 N8          6.1840    3.8360   -1.5600 n         1 MOL     -0.250450
     80 C25         4.9430    4.5050   -2.0170 c3        1 MOL     -0.184311
     81 C26         3.6420    3.9400   -1.3700 c         1 MOL      0.582996
     82 O14         2.5650    3.9740   -1.9450 o         1 MOL     -0.482498
     83 C27         4.9250    4.8450   -3.5270 c3        1 MOL      0.362760
     84 C28         4.8660    3.5660   -4.3750 c3        1 MOL     -0.345334
     85 O15         6.1060    5.5800   -3.7560 oh        1 MOL     -0.601623
     86 H35         6.8670    4.5000   -1.2260 hn        1 MOL      0.237835
     87 H36         5.0400    5.4840   -1.5500 h1        1 MOL      0.088448
     88 H37         4.0140    5.4070   -3.7230 h1        1 MOL      0.002907
     89 H38         5.9660    6.4650   -3.3970 ho        1 MOL      0.381564
     90 H39         4.8400    3.8480   -5.4240 hc        1 MOL      0.111385
     91 H40         5.8310    3.0560   -4.3580 hc        1 MOL      0.111385
     92 H41         4.0620    2.8800   -4.1470 hc        1 MOL      0.111385
     93 N9          3.7540    3.5110   -0.1070 n         1 MOL     -0.355478
     94 C29         2.7730    2.9910    0.9010 c3        1 MOL     -0.259462
     95 C30         1.3940    3.6780    1.1630 c         1 MOL      0.372927
     96 O16         0.8020    3.6180    2.2570 o         1 MOL     -0.516529
     97 C31         3.6520    2.6990    2.1040 c3        1 MOL      0.441397
     98 C32         4.2530    3.9040    2.8510 c3        1 MOL     -0.206742
     99 C33         4.7310    1.6410    1.8000 c3        1 MOL     -0.418818
    100 C34         4.6260    3.4840    4.2820 c3        1 MOL     -0.077598
    101 H42         4.6680    3.6780    0.2710 hn        1 MOL      0.156663
    102 H43         2.4170    2.0350    0.4950 h1        1 MOL      0.227686
    103 H44         2.9700    2.2780    2.8440 hc        1 MOL     -0.051520
    104 H45         3.5790    4.7240    3.0840 hc        1 MOL      0.064821
    105 H46         5.1160    4.1740    2.2300 hc        1 MOL      0.064821
    106 H47         4.2310    0.6790    1.8320 hc        1 MOL      0.122600
    107 H48         5.2570    1.8120    0.8590 hc        1 MOL      0.122600
    108 H49         5.5570    1.6280    2.5130 hc        1 MOL      0.122600
    109 H50         5.2980    4.2510    4.6750 hc        1 MOL      0.027612
    110 H51         3.8030    3.2950    4.9760 hc        1 MOL      0.027612
    111 H52         5.2350    2.5770    4.3110 hc        1 MOL      0.027612
    112 N10         0.7980    4.3650    0.2000 n         1 MOL      0.004215
    113 C35        -0.2180    5.3960    0.5140 c3        1 MOL     -0.140038
    114 C36        -1.6190    4.8360    0.5990 c         1 MOL      0.440862
    115 O17        -2.4800    5.4550    1.1850 o         1 MOL     -0.540712
    116 C37        -0.2050    6.5600   -0.6180 c3        1 MOL      0.307323
    117 C38        -0.6800    6.0420   -2.0430 c3        1 MOL     -0.226624
    118 O18         1.1350    7.0420   -0.7450 oh        1 MOL     -0.677548
    119 H53         1.2330    4.2500   -0.7080 hn        1 MOL      0.128751
    120 H54        -0.0250    5.9030    1.4520 h1        1 MOL      0.133996
    121 H55        -0.8300    7.3840   -0.3100 h1        1 MOL      0.019332
    122 H56         1.1220    7.9170   -1.1440 ho        1 MOL      0.416269
    123 H57        -1.7190    6.3010   -2.2790 hc        1 MOL      0.061763
    124 H58        -0.0260    6.3970   -2.8360 hc        1 MOL      0.061763
    125 H59        -0.6680    4.9570   -2.0670 hc        1 MOL      0.061763
    126 N11        -1.7540    3.5640    0.2940 n         1 MOL     -0.278575
    127 C39        -2.9710    2.7220    0.4190 c3        1 MOL      0.031968
    128 C40        -4.2060    3.1860   -0.3900 c         1 MOL      0.361288
    129 O19        -4.1590    4.2580   -0.9830 o         1 MOL     -0.470764
    130 C41        -3.5490    2.5180    1.8770 c3        1 MOL      0.287949
    131 C42        -2.3950    2.5730    2.9480 c3        1 MOL     -0.214755
    132 O20        -4.1510    1.1920    2.0360 oh        1 MOL     -0.633179
    133 H60        -0.8620    3.1850    0.0310 hn        1 MOL      0.175582
    134 H61        -2.8230    1.7010    0.0580 h1        1 MOL      0.102615
    135 H62        -4.1250    3.3540    2.2550 h1        1 MOL      0.072077
    136 H63        -3.4040    0.5860    2.0400 ho        1 MOL      0.373266
    137 H64        -2.1850    3.6370    3.0480 hc        1 MOL      0.049107
    138 H65        -2.6670    2.2080    3.9370 hc        1 MOL      0.049107
    139 H66        -1.4860    2.1010    2.5770 hc        1 MOL      0.049107
    140 N12        -5.3020    2.4790   -0.3320 n         1 MOL     -0.312532
    141 C43        -6.5580    2.8170   -1.0930 c3        1 MOL     -0.006950
    142 C44        -7.2930    1.5220   -1.5640 c         1 MOL      0.503510
    143 O21        -8.4890    1.5950   -1.8310 o         1 MOL     -0.529643
    144 C45        -7.4600    3.7970   -0.2400 c3        1 MOL      0.137088
    145 C46        -7.8390    3.3290    1.2350 c3        1 MOL     -0.015928
    146 C47        -9.1320    4.0160    1.7480 c3        1 MOL     -0.268606
    147 C48        -9.1630    5.4830    1.4880 c3        1 MOL      0.073856
    148 N13       -10.1640    6.3000    2.1600 n4        1 MOL     -0.361385
    149 H67        -5.3660    1.7300    0.3450 hn        1 MOL      0.200937
    150 H68        -6.3240    3.3390   -2.0280 h1        1 MOL      0.105052
    151 H69        -8.3810    3.9390   -0.8150 hc        1 MOL     -0.030394
    152 H70        -7.0300    4.8000   -0.2980 hc        1 MOL     -0.030394
    153 H71        -6.9920    3.4220    1.9040 hc        1 MOL      0.047303
    154 H72        -8.0480    2.2550    1.2000 hc        1 MOL      0.047303
    155 H73        -9.3260    3.8030    2.7920 hc        1 MOL      0.107131
    156 H74        -9.9300    3.4490    1.2730 hc        1 MOL      0.107131
    157 H75        -9.3210    5.6100    0.4200 hx        1 MOL      0.092677
    158 H76        -8.1710    5.8620    1.7090 hx        1 MOL      0.092677
    159 H77       -10.2850    6.0010    3.1150 hn        1 MOL      0.329298
    160 H78        -9.9320    7.2870    2.1260 hn        1 MOL      0.329298
    161 H79       -11.0770    6.1700    1.7640 hn        1 MOL      0.329298
    162 N14        -6.6560    0.3300   -1.7620 n         1 MOL     -0.311285
    163 C49        -7.3240   -0.9400   -2.0960 c3        1 MOL     -0.240344
    164 C50        -8.2610   -1.4480   -1.0660 c         1 MOL      0.600215
    165 O22        -8.3020   -0.8520   -0.0020 o         1 MOL     -0.505978
    166 C51        -6.2780   -2.0000   -2.4560 c3        1 MOL      0.146799
    167 C52        -5.4900   -2.3100   -1.1650 c3        1 MOL     -0.202604
    168 C53        -4.2450   -3.1030   -1.7180 c         1 MOL      0.595909
    169 O23        -4.1150   -4.3290   -1.5600 o         1 MOL     -0.694979
    170 O24        -3.2820   -2.5140   -2.2550 o         1 MOL     -0.694979
    171 H80        -5.6490    0.2510   -1.6610 hn        1 MOL      0.246982
    172 H81        -7.8610   -0.8960   -3.0490 h1        1 MOL      0.102509
    173 H82        -5.5790   -1.5850   -3.1840 hc        1 MOL     -0.004418
    174 H83        -6.7350   -2.8840   -2.9030 hc        1 MOL     -0.004418
    175 H84        -6.0810   -3.0100   -0.5850 hc        1 MOL      0.077399
    176 H85        -5.1440   -1.5030   -0.5150 hc        1 MOL      0.077399
    177 N15        -9.0180   -2.5380   -1.2340 n         1 MOL     -0.315894
    178 C54        -9.9120   -3.1600   -0.2230 c3        1 MOL     -0.348394
    179 H86       -10.6500   -3.7840   -0.7270 h1        1 MOL      0.143319
    180 H87        -9.3220   -3.7740    0.4570 h1        1 MOL      0.143319
    181 H88       -10.4220   -2.3790    0.3420 h1        1 MOL      0.143319
    182 H89        -9.2860   -2.7400   -2.1970 hn        1 MOL      0.245849
    183 Ca1        -1.9330   -4.9880   -2.6500 Ca        1 MOL      1.793971
    184 O25         0.1680   -6.1020   -1.4730 oh        1 MOL     -0.967516
    185 H90         0.8440   -5.7280   -0.9070 ho        1 MOL      0.460656
    186 H91         0.6060   -6.7940   -1.9710 ho        1 MOL      0.460656
    187 O26        -2.6540   -7.0980   -1.0960 oh        1 MOL     -0.967516
    188 H92        -2.0170   -7.8120   -0.9730 ho        1 MOL      0.460656
    189 H93        -3.4430   -7.4070   -0.6490 ho        1 MOL      0.460656
    190 O27        -3.0040   -4.0850   -4.8190 oh        1 MOL     -0.967516
    191 H94        -3.9260   -3.9380   -5.0430 ho        1 MOL      0.460656
    192 H95        -2.5380   -3.3330   -5.2030 ho        1 MOL      0.460656
@<TRIPOS>BOND
     1    1    2 1   
     2    1    4 1   
     3    1    5 1   
     4    1    6 1   
     5    2    3 2   
     6    2    7 1   
     7    7    8 1   
     8    7   15 1   
     9    8    9 1   
    10    8   11 1   
    11    8   16 1   
    12    9   10 2   
    13    9   19 1   
    14   11   12 1   
    15   11   17 1   
    16   11   18 1   
    17   12   13 1   
    18   12   14 1   
    19   19   20 1   
    20   19   28 1   
    21   20   21 1   
    22   20   23 1   
    23   20   29 1   
    24   21   22 2   
    25   21   41 1   
    26   23   24 1   
    27   23   30 1   
    28   23   31 1   
    29   24   25 1   
    30   24   32 1   
    31   24   33 1   
    32   25   26 1   
    33   25   34 1   
    34   25   35 1   
    35   26   27 1   
    36   26   36 1   
    37   26   37 1   
    38   27   38 1   
    39   27   39 1   
    40   27   40 1   
    41   41   42 1   
    42   41   49 1   
    43   42   43 1   
    44   42   45 1   
    45   42   50 1   
    46   43   44 2   
    47   43   53 1   
    48   45   46 1   
    49   45   51 1   
    50   45   52 1   
    51   46   47 1   
    52   46   48 1   
    53   53   54 1   
    54   53   57 1   
    55   54   55 1   
    56   54   58 1   
    57   54   59 1   
    58   55   56 2   
    59   55   60 1   
    60   60   61 1   
    61   60   68 1   
    62   61   62 1   
    63   61   64 1   
    64   61   69 1   
    65   62   63 2   
    66   62   72 1   
    67   64   65 1   
    68   64   70 1   
    69   64   71 1   
    70   65   66 1   
    71   65   67 1   
    72   72   73 1   
    73   72   76 1   
    74   73   74 1   
    75   73   77 1   
    76   73   78 1   
    77   74   75 2   
    78   74   79 1   
    79   79   80 1   
    80   79   86 1   
    81   80   81 1   
    82   80   83 1   
    83   80   87 1   
    84   81   82 2   
    85   81   93 1   
    86   83   84 1   
    87   83   85 1   
    88   83   88 1   
    89   84   90 1   
    90   84   91 1   
    91   84   92 1   
    92   85   89 1   
    93   93   94 1   
    94   93  101 1   
    95   94   95 1   
    96   94   97 1   
    97   94  102 1   
    98   95   96 2   
    99   95  112 1   
   100   97   98 1   
   101   97   99 1   
   102   97  103 1   
   103   98  100 1   
   104   98  104 1   
   105   98  105 1   
   106   99  106 1   
   107   99  107 1   
   108   99  108 1   
   109  100  109 1   
   110  100  110 1   
   111  100  111 1   
   112  112  113 1   
   113  112  119 1   
   114  113  114 1   
   115  113  116 1   
   116  113  120 1   
   117  114  115 2   
   118  114  126 1   
   119  116  117 1   
   120  116  118 1   
   121  116  121 1   
   122  117  123 1   
   123  117  124 1   
   124  117  125 1   
   125  118  122 1   
   126  126  127 1   
   127  126  133 1   
   128  127  128 1   
   129  127  130 1   
   130  127  134 1   
   131  128  129 2   
   132  128  140 1   
   133  130  131 1   
   134  130  132 1   
   135  130  135 1   
   136  131  137 1   
   137  131  138 1   
   138  131  139 1   
   139  132  136 1   
   140  140  141 1   
   141  140  149 1   
   142  141  142 1   
   143  141  144 1   
   144  141  150 1   
   145  142  143 2   
   146  142  162 1   
   147  144  145 1   
   148  144  151 1   
   149  144  152 1   
   150  145  146 1   
   151  145  153 1   
   152  145  154 1   
   153  146  147 1   
   154  146  155 1   
   155  146  156 1   
   156  147  148 1   
   157  147  157 1   
   158  147  158 1   
   159  148  159 1   
   160  148  160 1   
   161  148  161 1   
   162  162  163 1   
   163  162  171 1   
   164  163  164 1   
   165  163  166 1   
   166  163  172 1   
   167  164  165 2   
   168  164  177 1   
   169  166  167 1   
   170  166  173 1   
   171  166  174 1   
   172  167  168 1   
   173  167  175 1   
   174  167  176 1   
   175  168  169 1   
   176  168  170 1   
   177  177  178 1   
   178  177  182 1   
   179  178  179 1   
   180  178  180 1   
   181  178  181 1   
   182  184  185 1   
   183  184  186 1   
   184  187  188 1   
   185  187  189 1   
   186  190  191 1   
   187  190  192 1   
@<TRIPOS>SUBSTRUCTURE
     1 MOL         1 TEMP              0 ****  ****    0 ROOT
