@<TRIPOS>MOLECULE
MOL
  188   182     1     0     0
SMALL
resp


@<TRIPOS>ATOM
      1 C1          6.4800   -0.5530    5.3240 c3        1 MOL     -0.462672
      2 C2          6.2740   -0.5400    3.8510 c         1 MOL      0.737045
      3 O1          5.1090   -0.3340    3.4060 o         1 MOL     -0.649596
      4 H1          6.1300   -1.5020    5.7310 hc        1 MOL      0.114542
      5 H2          7.5410   -0.4340    5.5440 hc        1 MOL      0.114542
      6 H3          5.9200    0.2650    5.7780 hc        1 MOL      0.114542
      7 N1          7.2160   -0.6340    2.9560 n         1 MOL     -0.466215
      8 C3          7.0340   -0.4190    1.4510 c3        1 MOL     -0.045917
      9 C4          5.8750   -1.2530    0.7790 c         1 MOL      0.463272
     10 O2          5.0150   -0.6190    0.1190 o         1 MOL     -0.543004
     11 C5          8.3390   -0.7310    0.6860 c3        1 MOL     -0.079657
     12 C6          9.1220   -1.9180    1.2770 c         1 MOL      0.627152
     13 O3          8.4870   -2.9730    1.5530 o         1 MOL     -0.681281
     14 O4         10.3170   -1.7340    1.4720 o         1 MOL     -0.681281
     15 H4          8.1780   -0.7910    3.2450 hn        1 MOL      0.293898
     16 H5          6.7630    0.6240    1.3200 h1        1 MOL      0.115159
     17 H6          8.9950    0.1320    0.5690 hc        1 MOL      0.059590
     18 H7          8.1090   -1.0160   -0.3370 hc        1 MOL      0.059590
     19 N2          5.7980   -2.5750    1.0990 n         1 MOL     -0.415041
     20 C7          4.6410   -3.3180    0.5640 c3        1 MOL      0.229330
     21 C8          4.6690   -3.3680   -1.0010 c         1 MOL      0.628673
     22 O5          5.7070   -3.5230   -1.6060 o         1 MOL     -0.542637
     23 C9          4.4630   -4.6970    1.1950 c3        1 MOL     -0.112766
     24 C10         4.1520   -4.5050    2.7030 c3        1 MOL      0.096641
     25 C11         4.3410   -5.8090    3.5630 c3        1 MOL     -0.072611
     26 C12         5.7380   -6.4280    3.5630 c3        1 MOL      0.107816
     27 N3          5.9260   -7.6960    4.3790 n4        1 MOL     -0.411635
     28 H8          6.5270   -3.0380    1.6250 hn        1 MOL      0.193969
     29 H9          3.7210   -2.7980    0.8180 h1        1 MOL      0.033409
     30 H10         5.3850   -5.2650    1.1300 hc        1 MOL      0.013090
     31 H11         3.6620   -5.1970    0.6540 hc        1 MOL      0.013090
     32 H12         3.1770   -4.0310    2.7780 hc        1 MOL     -0.014830
     33 H13         4.7630   -3.7450    3.1920 hc        1 MOL     -0.014830
     34 H14         3.6190   -6.5970    3.3800 hc        1 MOL      0.013666
     35 H15         4.1750   -5.5040    4.5930 hc        1 MOL      0.013666
     36 H16         6.3430   -5.6430    4.0150 hx        1 MOL      0.101574
     37 H17         6.1820   -6.6350    2.5820 hx        1 MOL      0.101574
     38 H18         6.8700   -8.0350    4.4130 hn        1 MOL      0.332757
     39 H19         5.6710   -7.6090    5.3620 hn        1 MOL      0.332757
     40 H20         5.3420   -8.4180    3.9890 hn        1 MOL      0.332757
     41 N4          3.4730   -3.3150   -1.5600 n         1 MOL     -0.467079
     42 C13         3.2850   -3.1700   -2.9780 c3        1 MOL     -0.131858
     43 C14         3.5820   -1.7040   -3.3560 c         1 MOL      0.603525
     44 O6          2.9950   -0.7830   -2.7640 o         1 MOL     -0.527970
     45 C15         1.9640   -3.7330   -3.4120 c3        1 MOL     -0.155149
     46 C16         0.8190   -3.3560   -2.5570 c         1 MOL      0.768000
     47 O7          0.0950   -2.3890   -2.8410 o         1 MOL     -0.738664
     48 O8          0.5540   -4.0590   -1.5800 o         1 MOL     -0.738664
     49 H21         2.7150   -3.3580   -0.8890 hn        1 MOL      0.269950
     50 H22         4.0270   -3.8050   -3.4620 h1        1 MOL      0.110814
     51 H23         1.9310   -4.8260   -3.4910 hc        1 MOL      0.057836
     52 H24         1.8430   -3.4910   -4.4700 hc        1 MOL      0.057836
     53 N5          4.6720   -1.5540   -4.1430 n         1 MOL     -0.474707
     54 C17         5.3790   -0.3080   -4.2240 c3        1 MOL      0.067422
     55 C18         6.5850   -0.2630   -3.2740 c         1 MOL      0.671024
     56 O9          7.3390   -1.1900   -3.1940 o         1 MOL     -0.561050
     57 H25         5.1560   -2.3040   -4.6120 hn        1 MOL      0.308986
     58 H26         4.6450    0.4180   -3.8640 h1        1 MOL      0.025083
     59 H27         5.6920    0.1020   -5.1850 h1        1 MOL      0.025083
     60 N6          6.9280    0.8150   -2.5690 n         1 MOL     -0.480668
     61 C19         6.4900    2.1980   -2.6460 c3        1 MOL     -0.001902
     62 C20         6.4080    2.8170   -1.2550 c         1 MOL      0.747206
     63 O10         7.4030    2.9110   -0.5880 o         1 MOL     -0.597090
     64 C21         7.4200    2.8960   -3.6230 c3        1 MOL     -0.183665
     65 C22         6.9340    4.3720   -3.7940 c         1 MOL      0.530581
     66 N7          7.7050    5.1690   -4.5300 n         1 MOL     -0.693987
     67 O11         6.0390    4.9050   -3.1130 o         1 MOL     -0.490166
     68 H28         7.7400    0.7160   -1.9840 hn        1 MOL      0.258853
     69 H29         5.4440    2.1280   -2.9620 h1        1 MOL      0.052169
     70 H30         7.4880    2.3570   -4.5700 hc        1 MOL      0.088417
     71 H31         8.4270    2.8500   -3.2060 hc        1 MOL      0.088417
     72 H32         8.5520    4.8620   -4.9800 hn        1 MOL      0.338046
     73 H33         7.2610    6.0300   -4.7910 hn        1 MOL      0.338046
     74 N8          5.3060    3.2460   -0.6940 n         1 MOL     -0.570200
     75 C23         3.9070    3.1520   -1.1720 c3        1 MOL      0.043698
     76 C24         2.9440    3.9460   -0.3410 c         1 MOL      0.688626
     77 O12         3.3800    4.8000    0.4260 o         1 MOL     -0.533761
     78 H34         5.3890    3.5540    0.2630 hn        1 MOL      0.320785
     79 H35         3.5520    2.1280   -1.1340 h1        1 MOL      0.048751
     80 H36         3.9030    3.4370   -2.2270 h1        1 MOL      0.048751
     81 N9          1.6120    3.7300   -0.5090 n         1 MOL     -0.708774
     82 C25         0.4940    4.3110    0.3040 c3        1 MOL      0.293643
     83 C26        -0.8310    3.4750    0.1420 c         1 MOL      0.433904
     84 O13        -1.0450    2.8400   -0.8950 o         1 MOL     -0.477479
     85 C27         0.1490    5.7740   -0.1130 c3        1 MOL     -0.073710
     86 C28        -0.4460    6.5080    1.0210 ca        1 MOL      0.054781
     87 C29        -1.7970    6.7840    1.0560 ca        1 MOL     -0.154326
     88 C30         0.4030    7.1210    1.9640 ca        1 MOL     -0.154326
     89 C31        -2.4320    7.5820    1.9970 ca        1 MOL     -0.263846
     90 C32        -0.1840    7.9220    2.9790 ca        1 MOL     -0.263846
     91 C33        -1.5860    8.2340    2.9280 ca        1 MOL      0.319836
     92 O14        -2.2660    8.8450    3.9530 oh        1 MOL     -0.467481
     93 H37         1.3190    3.0710   -1.2230 hn        1 MOL      0.309124
     94 H38         0.7740    4.3890    1.3530 h1        1 MOL      0.000051
     95 H39        -0.5260    5.8160   -0.9750 hc        1 MOL      0.064464
     96 H40         1.0630    6.3250   -0.3110 hc        1 MOL      0.064464
     97 H41        -2.4210    6.2690    0.3380 ha        1 MOL      0.145521
     98 H42         1.4860    7.0970    1.9630 ha        1 MOL      0.145521
     99 H43        -3.5020    7.5400    2.1220 ha        1 MOL      0.146419
    100 H44         0.4590    8.3380    3.7410 ha        1 MOL      0.146419
    101 H45        -1.6380    8.8140    4.6930 ho        1 MOL      0.344738
    102 N10        -1.7060    3.6470    1.1310 n         1 MOL     -0.455547
    103 C34        -3.0450    2.9780    1.3500 c3        1 MOL     -0.103553
    104 C35        -4.0950    3.3350    0.3460 c         1 MOL      0.661025
    105 O15        -4.0660    4.3240   -0.3530 o         1 MOL     -0.504932
    106 C36        -3.6050    3.1330    2.7870 c3        1 MOL      0.368972
    107 C37        -2.8030    2.1400    3.6670 c3        1 MOL     -0.035639
    108 C38        -3.5890    4.6410    3.0620 c3        1 MOL     -0.078572
    109 C39        -3.2830    2.1340    5.0520 c3        1 MOL     -0.202027
    110 H46        -1.4900    4.3720    1.8020 hn        1 MOL      0.229059
    111 H47        -2.7990    1.9230    1.2630 h1        1 MOL      0.013597
    112 H48        -4.6460    2.8140    2.7600 hc        1 MOL     -0.050527
    113 H49        -1.7470    2.4220    3.6150 hc        1 MOL      0.019863
    114 H50        -2.9270    1.1190    3.2920 hc        1 MOL      0.019863
    115 H51        -4.0020    5.1710    2.2090 hc        1 MOL      0.017450
    116 H52        -4.2060    4.7540    3.9550 hc        1 MOL      0.017450
    117 H53        -2.5940    5.0110    3.3110 hc        1 MOL      0.017450
    118 H54        -4.2830    1.7230    4.9820 hc        1 MOL      0.048321
    119 H55        -2.7080    1.5390    5.7670 hc        1 MOL      0.048321
    120 H56        -3.2510    3.1660    5.4000 hc        1 MOL      0.048321
    121 N11        -5.1890    2.5110    0.3180 n         1 MOL     -0.545246
    122 C40        -6.3860    2.7340   -0.4640 c3        1 MOL      0.113023
    123 C41        -6.6980    1.4570   -1.3230 c         1 MOL      0.553910
    124 O16        -6.3490    0.2640   -0.9910 o         1 MOL     -0.504950
    125 C42        -7.6290    3.1520    0.3480 c3        1 MOL      0.098320
    126 O17        -7.7940    2.2560    1.3540 oh        1 MOL     -0.567413
    127 H57        -5.1790    1.5890    0.7160 hn        1 MOL      0.287939
    128 H58        -6.2570    3.5770   -1.1440 h1        1 MOL      0.028270
    129 H59        -8.5270    3.2260   -0.2600 h1        1 MOL      0.024905
    130 H60        -7.4640    4.0830    0.8880 h1        1 MOL      0.024905
    131 H61        -8.4520    2.6510    1.9260 ho        1 MOL      0.404502
    132 N12        -7.5170    1.6180   -2.3140 n         1 MOL     -0.454803
    133 C43        -7.9280    0.5930   -3.2820 c3        1 MOL      0.192588
    134 C44        -8.4140   -0.7600   -2.7400 c         1 MOL      0.454191
    135 O18        -8.0230   -1.9360   -3.1280 o         1 MOL     -0.484812
    136 C45        -6.8880    0.4110   -4.4170 c3        1 MOL     -0.401349
    137 H62        -7.8390    2.5530   -2.5010 hn        1 MOL      0.273921
    138 H63        -8.7870    1.0690   -3.7590 h1        1 MOL      0.050750
    139 H64        -7.3470   -0.1520   -5.2270 hc        1 MOL      0.127373
    140 H65        -6.5830    1.3720   -4.8350 hc        1 MOL      0.127373
    141 H66        -6.0170   -0.1110   -4.0220 hc        1 MOL      0.127373
    142 N13        -9.2100   -0.7040   -1.7300 n         1 MOL     -0.663213
    143 C46       -10.0960   -1.7910   -1.2830 c3        1 MOL      0.397681
    144 C47        -9.4100   -3.0180   -0.7630 c         1 MOL      0.135008
    145 O19       -10.0370   -4.1570   -0.6930 o         1 MOL     -0.468008
    146 C48       -11.1880   -2.1150   -2.2740 c3        1 MOL     -0.298514
    147 H67        -9.2990    0.2310   -1.3460 hn        1 MOL      0.316937
    148 H68       -10.6910   -1.4790   -0.4140 h1        1 MOL      0.011431
    149 H69       -11.7180   -1.2080   -2.5730 hc        1 MOL      0.090347
    150 H70       -10.7000   -2.6610   -3.0830 hc        1 MOL      0.090347
    151 H71       -11.9710   -2.7690   -1.8740 hc        1 MOL      0.090347
    152 N14        -8.0970   -2.9430   -0.4750 n         1 MOL      0.178832
    153 C49        -7.3400   -4.0880    0.1210 c3        1 MOL     -0.483757
    154 C50        -7.8050   -4.4610    1.5190 c         1 MOL      0.542392
    155 O20        -7.8490   -5.6050    1.8340 o         1 MOL     -0.485000
    156 C51        -5.8480   -3.6880    0.1440 c3        1 MOL      0.118529
    157 C52        -5.0820   -3.4100   -1.1830 c3        1 MOL      0.031858
    158 C53        -3.6910   -2.9210   -0.8880 c         1 MOL      0.701954
    159 O21        -2.7030   -3.5610   -1.2390 o         1 MOL     -0.750211
    160 O22        -3.5090   -1.8170   -0.3150 o         1 MOL     -0.750211
    161 H72        -7.6210   -2.0590   -0.4670 hn        1 MOL      0.146688
    162 H73        -7.4000   -4.9550   -0.5400 h1        1 MOL      0.203225
    163 H74        -5.2250   -4.4660    0.5960 hc        1 MOL     -0.006205
    164 H75        -5.6790   -2.8430    0.8120 hc        1 MOL     -0.006205
    165 H76        -5.6330   -2.7770   -1.8740 hc        1 MOL     -0.006264
    166 H77        -4.9730   -4.3040   -1.7950 hc        1 MOL     -0.006264
    167 N15        -8.0940   -3.4330    2.3960 n         1 MOL     -0.242650
    168 C54        -8.4610   -3.6850    3.7800 c3        1 MOL     -0.285992
    169 H78        -7.7640   -4.4010    4.2160 h1        1 MOL      0.114824
    170 H79        -8.4210   -2.7510    4.3420 h1        1 MOL      0.114824
    171 H80        -9.4720   -4.0920    3.8200 h1        1 MOL      0.114824
    172 H81        -8.2630   -2.5370    1.9590 hn        1 MOL      0.187709
    173 Ca1        -0.6610   -2.1650   -0.3300 Ca        1 MOL      1.767275
    174 O23        -1.3820    0.2000   -1.3710 oh        1 MOL     -0.856008
    175 H82        -1.4030    1.0360   -0.9010 ho        1 MOL      0.420128
    176 H83        -1.5560    0.4300   -2.2860 ho        1 MOL      0.420128
    177 O24         1.2910   -3.1220    1.7800 oh        1 MOL     -0.856008
    178 H84         0.8510   -3.7120    2.4010 ho        1 MOL      0.420128
    179 H85         1.7750   -2.5140    2.3430 ho        1 MOL      0.420128
    180 O25         1.8510   -1.1850   -0.2670 oh        1 MOL     -0.856008
    181 H86         2.4730   -0.8400   -0.9070 ho        1 MOL      0.420128
    182 H87         2.3720   -1.3540    0.5140 ho        1 MOL      0.420128
    183 O26        -1.6690   -3.8030    1.5770 oh        1 MOL     -0.856008
    184 H88        -1.3410   -4.7090    1.6260 ho        1 MOL      0.420128
    185 H89        -1.7670   -3.5460    2.4950 ho        1 MOL      0.420128
    186 O27        -1.0730   -0.6830    1.8710 oh        1 MOL     -0.856008
    187 H90        -0.4580   -0.0320    2.1990 ho        1 MOL      0.420128
    188 H91        -1.9270   -0.3800    2.1620 ho        1 MOL      0.420128
@<TRIPOS>BOND
     1    1    2 1   
     2    1    4 1   
     3    1    5 1   
     4    1    6 1   
     5    2    3 2   
     6    2    7 1   
     7    7    8 1   
     8    7   15 1   
     9    8    9 1   
    10    8   11 1   
    11    8   16 1   
    12    9   10 2   
    13    9   19 1   
    14   11   12 1   
    15   11   17 1   
    16   11   18 1   
    17   12   13 1   
    18   12   14 1   
    19   19   20 1   
    20   19   28 1   
    21   20   21 1   
    22   20   23 1   
    23   20   29 1   
    24   21   22 2   
    25   21   41 1   
    26   23   24 1   
    27   23   30 1   
    28   23   31 1   
    29   24   25 1   
    30   24   32 1   
    31   24   33 1   
    32   25   26 1   
    33   25   34 1   
    34   25   35 1   
    35   26   27 1   
    36   26   36 1   
    37   26   37 1   
    38   27   38 1   
    39   27   39 1   
    40   27   40 1   
    41   41   42 1   
    42   41   49 1   
    43   42   43 1   
    44   42   45 1   
    45   42   50 1   
    46   43   44 2   
    47   43   53 1   
    48   45   46 1   
    49   45   51 1   
    50   45   52 1   
    51   46   47 1   
    52   46   48 1   
    53   53   54 1   
    54   53   57 1   
    55   54   55 1   
    56   54   58 1   
    57   54   59 1   
    58   55   56 2   
    59   55   60 1   
    60   60   61 1   
    61   60   68 1   
    62   61   62 1   
    63   61   64 1   
    64   61   69 1   
    65   62   63 2   
    66   62   74 1   
    67   64   65 1   
    68   64   70 1   
    69   64   71 1   
    70   65   66 1   
    71   65   67 2   
    72   66   72 1   
    73   66   73 1   
    74   74   75 1   
    75   74   78 1   
    76   75   76 1   
    77   75   79 1   
    78   75   80 1   
    79   76   77 2   
    80   76   81 1   
    81   81   82 1   
    82   81   93 1   
    83   82   83 1   
    84   82   85 1   
    85   82   94 1   
    86   83   84 2   
    87   83  102 1   
    88   85   86 1   
    89   85   95 1   
    90   85   96 1   
    91   86   87 ar  
    92   86   88 ar  
    93   87   89 ar  
    94   87   97 1   
    95   88   90 ar  
    96   88   98 1   
    97   89   91 ar  
    98   89   99 1   
    99   90   91 ar  
   100   90  100 1   
   101   91   92 1   
   102   92  101 1   
   103  102  103 1   
   104  102  110 1   
   105  103  104 1   
   106  103  106 1   
   107  103  111 1   
   108  104  105 2   
   109  104  121 1   
   110  106  107 1   
   111  106  108 1   
   112  106  112 1   
   113  107  109 1   
   114  107  113 1   
   115  107  114 1   
   116  108  115 1   
   117  108  116 1   
   118  108  117 1   
   119  109  118 1   
   120  109  119 1   
   121  109  120 1   
   122  121  122 1   
   123  121  127 1   
   124  122  123 1   
   125  122  125 1   
   126  122  128 1   
   127  123  124 2   
   128  123  132 1   
   129  125  126 1   
   130  125  129 1   
   131  125  130 1   
   132  126  131 1   
   133  132  133 1   
   134  132  137 1   
   135  133  134 1   
   136  133  136 1   
   137  133  138 1   
   138  134  135 2   
   139  134  142 1   
   140  136  139 1   
   141  136  140 1   
   142  136  141 1   
   143  142  143 1   
   144  142  147 1   
   145  143  144 1   
   146  143  146 1   
   147  143  148 1   
   148  144  145 2   
   149  144  152 1   
   150  146  149 1   
   151  146  150 1   
   152  146  151 1   
   153  152  153 1   
   154  152  161 1   
   155  153  154 1   
   156  153  156 1   
   157  153  162 1   
   158  154  155 2   
   159  154  167 1   
   160  156  157 1   
   161  156  163 1   
   162  156  164 1   
   163  157  158 1   
   164  157  165 1   
   165  157  166 1   
   166  158  159 1   
   167  158  160 1   
   168  167  168 1   
   169  167  172 1   
   170  168  169 1   
   171  168  170 1   
   172  168  171 1   
   173  174  175 1   
   174  174  176 1   
   175  177  178 1   
   176  177  179 1   
   177  180  181 1   
   178  180  182 1   
   179  183  184 1   
   180  183  185 1   
   181  186  187 1   
   182  186  188 1   
@<TRIPOS>SUBSTRUCTURE
     1 MOL         1 TEMP              0 ****  ****    0 ROOT
