@<TRIPOS>MOLECULE
MOL
  182   178     1     0     0
SMALL
resp


@<TRIPOS>ATOM
      1 C1          4.0990   -6.5930    4.8300 c3        1 MOL     -0.421677
      2 C2          3.5860   -5.8860    3.5560 c         1 MOL      0.746284
      3 O1          2.8070   -6.3600    2.6890 o         1 MOL     -0.634017
      4 H1          4.9570   -7.2160    4.5790 hc        1 MOL      0.117431
      5 H2          4.3980   -5.8460    5.5660 hc        1 MOL      0.117431
      6 H3          3.3070   -7.2160    5.2450 hc        1 MOL      0.117431
      7 N1          4.0210   -4.6630    3.3590 n         1 MOL     -0.566443
      8 C3          3.5570   -3.7920    2.2740 c3        1 MOL      0.040617
      9 C4          3.7970   -4.3230    0.7970 c         1 MOL      0.578875
     10 O2          4.8770   -4.6940    0.4580 o         1 MOL     -0.508029
     11 C5          4.2870   -2.4450    2.4100 c3        1 MOL      0.160541
     12 C6          3.9470   -1.3420    1.3750 c         1 MOL      0.218266
     13 O3          4.2350   -0.1500    1.6810 o         1 MOL     -0.614889
     14 O4          3.2660   -1.5410    0.3600 o         1 MOL     -0.614889
     15 H4          4.7070   -4.2740    3.9870 hn        1 MOL      0.300335
     16 H5          2.5100   -3.4980    2.3660 h1        1 MOL      0.008418
     17 H6          5.3660   -2.5730    2.4070 hc        1 MOL      0.008994
     18 H7          4.0190   -2.0530    3.3910 hc        1 MOL      0.008994
     19 N2          2.7400   -4.3820   -0.0150 n         1 MOL     -0.319425
     20 C7          2.6780   -5.0730   -1.3430 c3        1 MOL      0.048279
     21 C8          3.6070   -4.4900   -2.4110 c         1 MOL      0.344442
     22 O5          3.9050   -5.1570   -3.4170 o         1 MOL     -0.515127
     23 C9          1.2390   -5.0710   -1.8380 c3        1 MOL     -0.188147
     24 C10         0.3980   -5.8410   -0.8130 c3        1 MOL      0.205481
     25 C11        -1.1220   -5.8780   -1.1000 c3        1 MOL     -0.057359
     26 C12        -2.0050   -6.3250    0.1200 c3        1 MOL      0.045066
     27 N3         -3.3520   -6.4780   -0.3430 n4        1 MOL     -0.233056
     28 H8          1.9200   -3.9560    0.4120 hn        1 MOL      0.233550
     29 H9          2.9920   -6.1080   -1.2660 h1        1 MOL      0.108398
     30 H10         1.2040   -5.6230   -2.7750 hc        1 MOL      0.066620
     31 H11         0.8760   -4.0430   -1.9130 hc        1 MOL      0.066620
     32 H12         0.5170   -5.3910    0.1670 hc        1 MOL     -0.023493
     33 H13         0.7660   -6.8730   -0.8070 hc        1 MOL     -0.023493
     34 H14        -1.2980   -6.5230   -1.9590 hc        1 MOL      0.016563
     35 H15        -1.3610   -4.8580   -1.3770 hc        1 MOL      0.016563
     36 H16        -1.8770   -5.6130    0.9220 hx        1 MOL      0.070868
     37 H17        -1.6980   -7.3080    0.4640 hx        1 MOL      0.070868
     38 H18        -3.8900   -5.6270   -0.4270 hn        1 MOL      0.255100
     39 H19        -3.4280   -6.8940   -1.2550 hn        1 MOL      0.255100
     40 H20        -3.8320   -7.0720    0.3180 hn        1 MOL      0.255100
     41 N4          4.0790   -3.1980   -2.3040 n         1 MOL     -0.053087
     42 C13         5.1270   -2.7060   -3.0790 c3        1 MOL      0.027949
     43 C14         6.2830   -2.0510   -2.2070 c         1 MOL      0.315233
     44 O6          7.2030   -1.4900   -2.8000 o         1 MOL     -0.510359
     45 C15         4.6980   -1.6850   -4.1510 c3        1 MOL     -0.261427
     46 C16         4.4070   -0.2930   -3.5620 c         1 MOL      0.629239
     47 O7          4.0830   -0.2510   -2.3570 o         1 MOL     -0.665178
     48 O8          4.6410    0.7160   -4.2840 o         1 MOL     -0.665178
     49 H21         3.7090   -2.5870   -1.5980 hn        1 MOL      0.101279
     50 H22         5.5610   -3.4910   -3.6920 h1        1 MOL      0.103559
     51 H23         3.8120   -2.1220   -4.5960 hc        1 MOL      0.085183
     52 H24         5.4760   -1.5190   -4.9120 hc        1 MOL      0.085183
     53 N5          6.1860   -2.1990   -0.8780 n         1 MOL      0.017159
     54 C17         7.1920   -1.8080    0.1170 c3        1 MOL     -0.187658
     55 C18         7.4190   -0.2890    0.0980 c         1 MOL      0.481425
     56 O9          8.2420    0.1110    0.8870 o         1 MOL     -0.561528
     57 H25         5.4240   -2.8040   -0.5970 hn        1 MOL     -0.008305
     58 H26         8.1370   -2.2850   -0.1240 h1        1 MOL      0.115490
     59 H27         6.9030   -2.2160    1.0890 h1        1 MOL      0.115490
     60 N6          6.7670    0.5260   -0.6300 n         1 MOL      0.006589
     61 C19         6.8630    2.0180   -0.6180 c3        1 MOL      0.019837
     62 C20         5.5060    2.7450   -0.5790 c         1 MOL      0.594869
     63 O10         4.4630    2.0740   -0.4930 o         1 MOL     -0.628015
     64 C21         7.6500    2.4290   -1.8790 c3        1 MOL     -0.328779
     65 C22         9.0190    1.9380   -1.9780 c         1 MOL      0.658171
     66 N7          9.2160    0.7370   -2.5600 n         1 MOL     -0.791656
     67 O11         9.9680    2.5430   -1.4760 o         1 MOL     -0.552944
     68 H28         6.0870    0.1570   -1.2820 hn        1 MOL      0.155836
     69 H29         7.4520    2.3400    0.2450 h1        1 MOL      0.073218
     70 H30         7.6060    3.5140   -2.0290 hc        1 MOL      0.084782
     71 H31         7.0670    2.0690   -2.7230 hc        1 MOL      0.084782
     72 H32         8.4080    0.2400   -2.8990 hn        1 MOL      0.366156
     73 H33        10.1310    0.4170   -2.8310 hn        1 MOL      0.366156
     74 N8          5.4450    4.0800   -0.6650 n         1 MOL     -0.462537
     75 C23         4.2200    4.9170   -0.7460 c3        1 MOL     -0.011483
     76 C24         3.3500    4.8650    0.5000 c         1 MOL      0.585834
     77 O12         3.8050    4.7250    1.6560 o         1 MOL     -0.509983
     78 H34         6.3520    4.5230   -0.7450 hn        1 MOL      0.323115
     79 H35         3.6460    4.6060   -1.6220 h1        1 MOL      0.064590
     80 H36         4.3970    5.9900   -0.8770 h1        1 MOL      0.064590
     81 N9          2.0280    4.7800    0.2760 n         1 MOL     -0.696703
     82 C25         1.0660    4.6430    1.3430 c3        1 MOL      0.346102
     83 C26         1.0250    3.1420    1.7100 c         1 MOL      0.497900
     84 O13         1.7320    2.3100    1.0960 o         1 MOL     -0.458898
     85 C27        -0.2870    5.1970    0.8590 c3        1 MOL     -0.172561
     86 C28        -0.3720    6.7640    0.5460 ca        1 MOL      0.012281
     87 C29        -0.2480    7.6660    1.6470 ca        1 MOL     -0.090163
     88 C30        -0.6560    7.2370   -0.7160 ca        1 MOL     -0.090163
     89 C31        -0.4580    9.0000    1.4340 ca        1 MOL     -0.273025
     90 C32        -0.7440    8.6310   -0.9710 ca        1 MOL     -0.273025
     91 C33        -0.5610    9.5070    0.0920 ca        1 MOL      0.307292
     92 O14        -0.8030   10.8540   -0.0570 oh        1 MOL     -0.433096
     93 H37         1.8000    4.9870   -0.6810 hn        1 MOL      0.303655
     94 H38         1.4400    5.2470    2.1760 h1        1 MOL      0.068106
     95 H39        -1.0510    4.9730    1.5980 hc        1 MOL      0.053633
     96 H40        -0.6410    4.6490   -0.0100 hc        1 MOL      0.053633
     97 H41        -0.0920    7.3060    2.6570 ha        1 MOL      0.107619
     98 H42        -0.8440    6.5920   -1.5560 ha        1 MOL      0.107619
     99 H43        -0.6020    9.6580    2.2710 ha        1 MOL      0.170881
    100 H44        -1.0150    9.0730   -1.9170 ha        1 MOL      0.170881
    101 H45        -1.0790   10.9980   -0.9690 ho        1 MOL      0.335703
    102 N10         0.3510    2.7370    2.7360 n         1 MOL     -0.751851
    103 C34         0.1950    1.3430    3.1670 c3        1 MOL      0.417269
    104 C35        -0.1740    0.3680    1.9880 c         1 MOL      0.258658
    105 O15         0.7470   -0.1820    1.3420 o         1 MOL     -0.313951
    106 C36         1.3740    0.8500    4.0000 c3        1 MOL      0.293262
    107 C37         1.2930   -0.6210    4.3880 c3        1 MOL     -0.230990
    108 C38         1.4590    1.6920    5.2550 c3        1 MOL     -0.243669
    109 C39        -0.0470   -1.1370    5.1230 c3        1 MOL     -0.124839
    110 H46        -0.0270    3.4170    3.3790 hn        1 MOL      0.336188
    111 H47        -0.7300    1.3670    3.7510 h1        1 MOL     -0.007639
    112 H48         2.3060    0.9440    3.4380 hc        1 MOL      0.019333
    113 H49         2.1280   -0.7640    5.0800 hc        1 MOL      0.100562
    114 H50         1.4580   -1.2130    3.4840 hc        1 MOL      0.100562
    115 H51         2.3590    1.3830    5.8000 hc        1 MOL      0.049992
    116 H52         1.5380    2.7490    4.9860 hc        1 MOL      0.049992
    117 H53         0.5540    1.5600    5.8440 hc        1 MOL      0.049992
    118 H54         0.0550   -2.1410    5.5310 hc        1 MOL      0.029435
    119 H55        -0.5190   -0.4610    5.8450 hc        1 MOL      0.029435
    120 H56        -0.8130   -1.2320    4.3570 hc        1 MOL      0.029435
    121 N11        -1.4230   -0.0960    1.8360 n         1 MOL     -0.353540
    122 C40        -1.8420   -1.0250    0.7870 c3        1 MOL      0.011815
    123 C41        -3.3410   -1.0210    0.4330 c         1 MOL      0.478166
    124 O16        -3.7140   -1.6490   -0.5500 o         1 MOL     -0.544546
    125 C42        -1.4750   -2.4440    1.3100 c3        1 MOL      0.185645
    126 O17        -0.0680   -2.6680    1.4450 oh        1 MOL     -0.424983
    127 H57        -2.1430    0.3160    2.4220 hn        1 MOL      0.247275
    128 H58        -1.2510   -0.8910   -0.1180 h1        1 MOL      0.110430
    129 H59        -1.8750   -3.2790    0.7220 h1        1 MOL      0.002874
    130 H60        -1.9960   -2.5000    2.2670 h1        1 MOL      0.002874
    131 H61         0.2910   -1.7800    1.5530 ho        1 MOL      0.173681
    132 N12        -4.2080   -0.2970    1.1460 n         1 MOL     -0.514006
    133 C43        -5.5740   -0.1550    0.7560 c3        1 MOL      0.195557
    134 C44        -5.8350    1.1960    0.0880 c         1 MOL      0.731898
    135 O18        -5.1340    2.1790    0.3700 o         1 MOL     -0.601385
    136 C45        -6.3980   -0.2620    2.0520 c3        1 MOL     -0.363106
    137 H62        -3.8530    0.1940    1.9540 hn        1 MOL      0.298507
    138 H63        -5.8430   -0.9740    0.0840 h1        1 MOL      0.117247
    139 H64        -6.0980    0.5670    2.7050 hc        1 MOL      0.107250
    140 H65        -7.4370   -0.2030    1.7460 hc        1 MOL      0.107250
    141 H66        -6.1840   -1.2220    2.5110 hc        1 MOL      0.107250
    142 N13        -6.8470    1.3230   -0.8410 n         1 MOL     -0.830637
    143 C46        -7.7160    0.3360   -1.4910 c3        1 MOL      0.362162
    144 C47        -9.0260    0.9760   -2.0710 c         1 MOL      0.414388
    145 O19        -8.9340    2.0020   -2.7800 o         1 MOL     -0.515148
    146 C48        -7.0130   -0.4240   -2.5740 c3        1 MOL     -0.122607
    147 H67        -6.9480    2.2890   -1.1380 hn        1 MOL      0.389042
    148 H68        -7.9310   -0.3800   -0.6940 h1        1 MOL     -0.068326
    149 H69        -6.1060   -0.9030   -2.2000 hc        1 MOL      0.043060
    150 H70        -7.5940   -1.2560   -2.9850 hc        1 MOL      0.043060
    151 H71        -6.8270    0.1680   -3.4750 hc        1 MOL      0.043060
    152 N14       -10.2250    0.3390   -1.8760 n         1 MOL     -0.408393
    153 C49       -10.5270   -0.7620   -0.9890 c3        1 MOL     -0.124621
    154 C50       -10.6330   -0.4780    0.5630 c         1 MOL      0.533809
    155 O20       -10.7840   -1.4380    1.3400 o         1 MOL     -0.505578
    156 C51       -11.7290   -1.5080   -1.5000 c3        1 MOL     -0.086185
    157 C52       -13.0330   -0.8170   -1.2710 c3        1 MOL     -0.033777
    158 C53       -14.2430   -1.6820   -1.6550 c         1 MOL      0.757014
    159 O21       -15.2160   -1.6210   -0.8960 o         1 MOL     -0.683144
    160 O22       -14.1970   -2.3190   -2.6830 o         1 MOL     -0.683144
    161 H72       -11.0240    0.6280   -2.4270 hn        1 MOL      0.338678
    162 H73        -9.6200   -1.3560   -1.1350 h1        1 MOL      0.081750
    163 H74       -11.7420   -2.5000   -1.0360 hc        1 MOL      0.044644
    164 H75       -11.6080   -1.5340   -2.5870 hc        1 MOL      0.044644
    165 H76       -13.0740    0.1160   -1.8300 hc        1 MOL     -0.023404
    166 H77       -13.1680   -0.5120   -0.2340 hc        1 MOL     -0.023404
    167 N15       -10.4280    0.7900    0.9900 n         1 MOL     -0.279126
    168 C54       -10.3940    1.1550    2.4110 c3        1 MOL     -0.082468
    169 H78       -11.3540    1.5840    2.6980 h1        1 MOL      0.066858
    170 H79       -10.2000    0.2660    3.0100 h1        1 MOL      0.066858
    171 H80        -9.6040    1.8860    2.5790 h1        1 MOL      0.066858
    172 H81       -10.6860    1.5150    0.3450 hn        1 MOL      0.238146
    173 Ca1         2.3530    0.5850   -0.6680 Ca        1 MOL      1.747496
    174 O23         0.0530    1.8090   -1.5230 oh        1 MOL     -0.903143
    175 H82        -0.9020    1.7930   -1.4470 ho        1 MOL      0.432180
    176 H83         0.2350    2.5780   -2.0740 ho        1 MOL      0.432180
    177 O24         2.6900    2.1520   -2.9690 oh        1 MOL     -0.903143
    178 H84         3.4610    1.6870   -3.3050 ho        1 MOL      0.432180
    179 H85         2.6240    2.9270   -3.5300 ho        1 MOL      0.432180
    180 O25         0.8770   -1.4310   -2.0770 oh        1 MOL     -0.903143
    181 H86        -0.0430   -1.6800   -2.1910 ho        1 MOL      0.432180
    182 H87         1.1510   -1.1290   -2.9410 ho        1 MOL      0.432180
@<TRIPOS>BOND
     1    1    2 1   
     2    1    4 1   
     3    1    5 1   
     4    1    6 1   
     5    2    3 2   
     6    2    7 1   
     7    7    8 1   
     8    7   15 1   
     9    8    9 1   
    10    8   11 1   
    11    8   16 1   
    12    9   10 2   
    13    9   19 1   
    14   11   12 1   
    15   11   17 1   
    16   11   18 1   
    17   12   13 1   
    18   12   14 1   
    19   19   20 1   
    20   19   28 1   
    21   20   21 1   
    22   20   23 1   
    23   20   29 1   
    24   21   22 2   
    25   21   41 1   
    26   23   24 1   
    27   23   30 1   
    28   23   31 1   
    29   24   25 1   
    30   24   32 1   
    31   24   33 1   
    32   25   26 1   
    33   25   34 1   
    34   25   35 1   
    35   26   27 1   
    36   26   36 1   
    37   26   37 1   
    38   27   38 1   
    39   27   39 1   
    40   27   40 1   
    41   41   42 1   
    42   41   49 1   
    43   42   43 1   
    44   42   45 1   
    45   42   50 1   
    46   43   44 2   
    47   43   53 1   
    48   45   46 1   
    49   45   51 1   
    50   45   52 1   
    51   46   47 1   
    52   46   48 1   
    53   53   54 1   
    54   53   57 1   
    55   54   55 1   
    56   54   58 1   
    57   54   59 1   
    58   55   56 2   
    59   55   60 1   
    60   60   61 1   
    61   60   68 1   
    62   61   62 1   
    63   61   64 1   
    64   61   69 1   
    65   62   63 2   
    66   62   74 1   
    67   64   65 1   
    68   64   70 1   
    69   64   71 1   
    70   65   66 1   
    71   65   67 2   
    72   66   72 1   
    73   66   73 1   
    74   74   75 1   
    75   74   78 1   
    76   75   76 1   
    77   75   79 1   
    78   75   80 1   
    79   76   77 2   
    80   76   81 1   
    81   81   82 1   
    82   81   93 1   
    83   82   83 1   
    84   82   85 1   
    85   82   94 1   
    86   83   84 2   
    87   83  102 1   
    88   85   86 1   
    89   85   95 1   
    90   85   96 1   
    91   86   87 ar  
    92   86   88 ar  
    93   87   89 ar  
    94   87   97 1   
    95   88   90 ar  
    96   88   98 1   
    97   89   91 ar  
    98   89   99 1   
    99   90   91 ar  
   100   90  100 1   
   101   91   92 1   
   102   92  101 1   
   103  102  103 1   
   104  102  110 1   
   105  103  104 1   
   106  103  106 1   
   107  103  111 1   
   108  104  105 2   
   109  104  121 1   
   110  106  107 1   
   111  106  108 1   
   112  106  112 1   
   113  107  109 1   
   114  107  113 1   
   115  107  114 1   
   116  108  115 1   
   117  108  116 1   
   118  108  117 1   
   119  109  118 1   
   120  109  119 1   
   121  109  120 1   
   122  121  122 1   
   123  121  127 1   
   124  122  123 1   
   125  122  125 1   
   126  122  128 1   
   127  123  124 2   
   128  123  132 1   
   129  125  126 1   
   130  125  129 1   
   131  125  130 1   
   132  126  131 1   
   133  132  133 1   
   134  132  137 1   
   135  133  134 1   
   136  133  136 1   
   137  133  138 1   
   138  134  135 2   
   139  134  142 1   
   140  136  139 1   
   141  136  140 1   
   142  136  141 1   
   143  142  143 1   
   144  142  147 1   
   145  143  144 1   
   146  143  146 1   
   147  143  148 1   
   148  144  145 2   
   149  144  152 1   
   150  146  149 1   
   151  146  150 1   
   152  146  151 1   
   153  152  153 1   
   154  152  161 1   
   155  153  154 1   
   156  153  156 1   
   157  153  162 1   
   158  154  155 2   
   159  154  167 1   
   160  156  157 1   
   161  156  163 1   
   162  156  164 1   
   163  157  158 1   
   164  157  165 1   
   165  157  166 1   
   166  158  159 1   
   167  158  160 1   
   168  167  168 1   
   169  167  172 1   
   170  168  169 1   
   171  168  170 1   
   172  168  171 1   
   173  174  175 1   
   174  174  176 1   
   175  177  178 1   
   176  177  179 1   
   177  180  181 1   
   178  180  182 1   
@<TRIPOS>SUBSTRUCTURE
     1 MOL         1 TEMP              0 ****  ****    0 ROOT
