@<TRIPOS>MOLECULE
MOL
  181   177     1     0     0
SMALL
resp


@<TRIPOS>ATOM
      1 C1         -4.0300   -1.2330   -3.8330 c3        1 MOL     -0.478921
      2 C2         -5.3340   -0.7680   -3.0800 c         1 MOL      0.734124
      3 O1         -5.2760    0.3120   -2.5670 o         1 MOL     -0.583732
      4 H1         -4.0390   -2.3190   -3.9380 hc        1 MOL      0.122377
      5 H2         -3.9950   -0.7740   -4.8210 hc        1 MOL      0.122377
      6 H3         -3.1520   -0.9320   -3.2600 hc        1 MOL      0.122377
      7 N1         -6.4730   -1.4960   -2.9990 n         1 MOL     -0.518874
      8 C3         -7.5760   -0.9830   -2.2070 c3        1 MOL     -0.031675
      9 C4         -7.4460   -1.2570   -0.6450 c         1 MOL      0.494124
     10 O2         -6.9360   -2.2840   -0.1600 o         1 MOL     -0.578045
     11 C5         -8.8150   -1.6740   -2.7800 c3        1 MOL     -0.105612
     12 C6        -10.0730   -1.0920   -2.1640 c         1 MOL      0.710951
     13 O3        -10.4330   -1.6180   -1.1280 o         1 MOL     -0.733949
     14 O4        -10.6660   -0.1390   -2.6330 o         1 MOL     -0.733949
     15 H4         -6.6500   -2.4470   -3.3120 hn        1 MOL      0.272440
     16 H5         -7.6970    0.0460   -2.5380 h1        1 MOL      0.110154
     17 H6         -8.8120   -2.7600   -2.6370 hc        1 MOL     -0.000029
     18 H7         -8.8840   -1.5500   -3.8590 hc        1 MOL     -0.000029
     19 N2         -7.7440   -0.2940    0.1640 n         1 MOL     -0.363046
     20 C7         -7.5920   -0.2290    1.6470 c3        1 MOL      0.245682
     21 C8         -6.0520   -0.2950    1.9350 c         1 MOL      0.615736
     22 O5         -5.2490    0.1480    1.1200 o         1 MOL     -0.571553
     23 C9         -8.2240    0.9880    2.1700 c3        1 MOL     -0.370836
     24 H8         -8.1620    0.4900   -0.3070 hn        1 MOL      0.265144
     25 H9         -8.0820   -1.1450    1.9720 h1        1 MOL      0.045801
     26 H10        -7.7480    1.8290    1.6700 hc        1 MOL      0.094412
     27 H11        -9.2700    1.0310    1.8650 hc        1 MOL      0.094412
     28 H12        -8.1480    1.0010    3.2620 hc        1 MOL      0.094412
     29 N3         -5.7230   -0.8510    3.1130 n         1 MOL     -0.592758
     30 C10        -4.3480   -1.1230    3.5410 c3        1 MOL      0.247029
     31 C11        -3.8040   -0.3440    4.7660 c         1 MOL      0.364072
     32 O6         -4.5540   -0.2230    5.7380 o         1 MOL     -0.503910
     33 C12        -4.3390   -2.5890    3.8410 c3        1 MOL      0.120216
     34 C13        -2.8900   -3.1130    3.6160 c         1 MOL      0.563731
     35 O7         -2.4870   -3.1250    2.4370 o         1 MOL     -0.697078
     36 O8         -2.1020   -3.2140    4.6030 o         1 MOL     -0.697078
     37 H13        -6.5120   -1.2070    3.6390 hn        1 MOL      0.274980
     38 H14        -3.7080   -0.9570    2.6730 h1        1 MOL     -0.006254
     39 H15        -5.0500   -3.0600    3.1630 hc        1 MOL     -0.035921
     40 H16        -4.7120   -2.8530    4.8300 hc        1 MOL     -0.035921
     41 N4         -2.5650    0.1500    4.6910 n         1 MOL     -0.166576
     42 C14        -1.9720    0.8580    5.8070 c3        1 MOL     -0.260008
     43 C15        -0.7420    1.7810    5.4310 c         1 MOL      0.581462
     44 O9          0.0050    2.1460    6.2830 o         1 MOL     -0.547067
     45 H17        -1.9360    0.0680    3.9020 hn        1 MOL      0.223186
     46 H18        -1.5240    0.1650    6.5140 h1        1 MOL      0.122963
     47 H19        -2.7670    1.4740    6.2170 h1        1 MOL      0.122963
     48 N5         -0.5080    2.1300    4.1680 n         1 MOL     -0.351860
     49 C16         0.6650    2.9840    3.8350 c3        1 MOL     -0.041616
     50 C17         0.0880    4.1630    2.9730 c         1 MOL      0.478831
     51 O10        -0.8910    3.9700    2.2840 o         1 MOL     -0.473767
     52 C18         1.6050    2.1270    2.9910 c3        1 MOL     -0.159361
     53 C19         2.2230    0.9900    3.8090 c         1 MOL      0.681272
     54 N6          1.9980   -0.2370    3.5500 n         1 MOL     -0.632258
     55 O11         2.9940    1.2290    4.7420 o         1 MOL     -0.597159
     56 H20        -1.1600    1.9070    3.4310 hn        1 MOL      0.213768
     57 H21         1.2450    3.3390    4.6870 h1        1 MOL      0.091509
     58 H22         2.3790    2.7620    2.5500 hc        1 MOL      0.069493
     59 H23         1.0610    1.6050    2.2090 hc        1 MOL      0.069493
     60 H24         1.2590   -0.6020    2.9650 hn        1 MOL      0.329371
     61 H25         2.4000   -0.9390    4.1610 hn        1 MOL      0.329371
     62 N7          0.7850    5.2920    2.9960 n         1 MOL     -0.247158
     63 C20         0.3840    6.5030    2.2910 c3        1 MOL     -0.431148
     64 C21         1.0440    6.5030    0.8630 c         1 MOL      0.688762
     65 O12         2.1600    6.0350    0.8120 o         1 MOL     -0.524146
     66 H26         1.5250    5.3590    3.6880 hn        1 MOL      0.270438
     67 H27         0.9250    7.3520    2.6980 h1        1 MOL      0.162217
     68 H28        -0.6910    6.6810    2.3750 h1        1 MOL      0.162217
     69 N8          0.4120    7.0240   -0.1650 n         1 MOL     -0.402920
     70 C22         1.0010    7.4500   -1.4910 c3        1 MOL     -0.439005
     71 C23         1.5030    6.2800   -2.3940 c         1 MOL      0.474136
     72 O13         2.4840    6.4420   -3.0770 o         1 MOL     -0.545312
     73 C24        -0.0200    8.3010   -2.2790 c3        1 MOL      0.401604
     74 C25        -1.1700    7.4730   -2.8380 c3        1 MOL     -0.273307
     75 O14        -0.4450    9.3970   -1.4820 oh        1 MOL     -0.580206
     76 H29        -0.5700    7.1750    0.0000 hn        1 MOL      0.265255
     77 H30         1.8650    8.0590   -1.2430 h1        1 MOL      0.221693
     78 H31         0.3710    8.8880   -3.1200 h1        1 MOL      0.068582
     79 H32        -0.9940    8.9470   -0.8380 ho        1 MOL      0.349271
     80 H33        -0.7370    6.7840   -3.5580 hc        1 MOL      0.065736
     81 H34        -1.5880    6.8690   -2.0290 hc        1 MOL      0.065736
     82 H35        -1.9380    8.1630   -3.1980 hc        1 MOL      0.065736
     83 N9          0.9340    5.1070   -2.2920 n         1 MOL      0.087164
     84 C26         1.4680    3.7810   -2.8250 c3        1 MOL     -0.263966
     85 C27         1.0710    2.7010   -1.8440 c         1 MOL      0.359800
     86 O15         0.0450    2.7850   -1.1970 o         1 MOL     -0.466428
     87 C28         0.8260    3.4470   -4.2660 c3        1 MOL      0.063988
     88 C29        -0.6910    3.3580   -4.2270 c3        1 MOL      0.185391
     89 C30         1.2700    4.6370   -5.1820 c3        1 MOL     -0.340329
     90 C31        -1.4950    3.1200   -5.4950 c3        1 MOL     -0.161720
     91 H36         0.0410    5.0820   -1.8170 hn        1 MOL      0.119247
     92 H37         2.5530    3.7660   -2.7910 h1        1 MOL      0.142137
     93 H38         1.1100    2.4400   -4.5800 hc        1 MOL      0.006857
     94 H39        -1.0230    4.2860   -3.7760 hc        1 MOL      0.019497
     95 H40        -0.9840    2.5520   -3.5560 hc        1 MOL      0.019497
     96 H41         1.0770    4.4100   -6.2340 hc        1 MOL      0.084568
     97 H42         0.8670    5.5940   -4.8720 hc        1 MOL      0.084568
     98 H43         2.3460    4.7540   -5.1180 hc        1 MOL      0.084568
     99 H44        -1.2710    3.9240   -6.1890 hc        1 MOL      0.025934
    100 H45        -1.3330    2.0940   -5.8370 hc        1 MOL      0.025934
    101 H46        -2.5270    3.2800   -5.1650 hc        1 MOL      0.025934
    102 N10         1.8160    1.5980   -1.8330 n         1 MOL     -0.433019
    103 C32         1.5190    0.4320   -1.0220 c3        1 MOL      0.198142
    104 C33         2.7430   -0.3300   -0.2770 c         1 MOL      0.427714
    105 O16         2.9190   -1.5670   -0.3210 o         1 MOL     -0.452420
    106 C34         0.7330   -0.4840   -1.9610 c3        1 MOL      0.115257
    107 C35        -0.1150   -1.5460   -1.3400 c         1 MOL      0.747031
    108 O17        -0.9340   -2.2210   -1.9840 o         1 MOL     -0.803885
    109 O18        -0.1640   -1.5680   -0.0470 o         1 MOL     -0.803885
    110 H47         2.7040    1.5660   -2.3170 hn        1 MOL      0.306012
    111 H48         0.8310    0.6170   -0.1890 h1        1 MOL      0.047080
    112 H49         1.3870   -0.9980   -2.6710 hc        1 MOL     -0.037992
    113 H50         0.0850    0.1850   -2.5300 hc        1 MOL     -0.037992
    114 N11         3.6180    0.4790    0.3350 n         1 MOL     -0.599436
    115 C36         4.7740   -0.1250    0.9810 c3        1 MOL      0.362135
    116 C37         5.7380   -0.5970   -0.1300 c         1 MOL      0.235563
    117 O19         5.9580    0.1560   -1.0970 o         1 MOL     -0.525720
    118 C38         5.5830    0.8740    1.8650 c3        1 MOL     -0.104678
    119 C39         6.6690    0.1860    2.6420 ca        1 MOL      0.046856
    120 C40         6.4230   -0.6340    3.7950 ca        1 MOL     -0.154626
    121 C41         8.0070    0.1160    2.2450 ca        1 MOL     -0.154626
    122 C42         7.3350   -1.5130    4.3540 ca        1 MOL     -0.064412
    123 C43         8.9990   -0.6470    2.9080 ca        1 MOL     -0.064412
    124 C44         8.6600   -1.4740    3.9470 ca        1 MOL     -0.159896
    125 H51         3.4760    1.4620    0.4860 hn        1 MOL      0.318907
    126 H52         4.4610   -0.9530    1.6090 h1        1 MOL     -0.014120
    127 H53         4.9430    1.4600    2.5370 hc        1 MOL      0.048999
    128 H54         6.0670    1.5660    1.1800 hc        1 MOL      0.048999
    129 H55         5.3970   -0.6790    4.1140 ha        1 MOL      0.101006
    130 H56         8.2220    0.6310    1.3190 ha        1 MOL      0.101006
    131 H57         7.0270   -2.1900    5.1380 ha        1 MOL      0.099963
    132 H58        10.0480   -0.5660    2.6580 ha        1 MOL      0.099963
    133 H59         9.4190   -2.0630    4.4540 ha        1 MOL      0.110002
    134 N12         6.1700   -1.8650   -0.1830 n         1 MOL      0.077876
    135 C45         6.9480   -2.3910   -1.2910 c3        1 MOL     -0.013820
    136 C46         6.0570   -2.8880   -2.4120 c         1 MOL      0.195778
    137 O20         6.5620   -3.1350   -3.4880 o         1 MOL     -0.477388
    138 C47         7.8290   -3.4800   -0.6770 c3        1 MOL      0.056139
    139 C48         7.6780   -3.3550    0.8050 c3        1 MOL     -0.074058
    140 C49         6.2570   -2.7900    0.9200 c3        1 MOL     -0.126362
    141 H60         7.7190   -1.7150   -1.6760 h1        1 MOL      0.083776
    142 H61         7.5330   -4.4780   -1.0040 hc        1 MOL      0.020137
    143 H62         8.8690   -3.4230   -0.9890 hc        1 MOL      0.020137
    144 H63         7.8210   -4.3810    1.1410 hc        1 MOL      0.020100
    145 H64         8.3890   -2.6220    1.1830 hc        1 MOL      0.020100
    146 H65         5.5680   -3.6230    0.7690 h1        1 MOL      0.079377
    147 H66         6.1010   -2.3610    1.9130 h1        1 MOL      0.079377
    148 N13         4.7340   -3.1150   -2.2240 n         1 MOL      0.090168
    149 C50         3.9930   -3.9420   -3.1480 c3        1 MOL     -0.353675
    150 C51         3.7390   -3.2970   -4.4760 c         1 MOL      0.535652
    151 O21         3.8120   -3.9310   -5.4630 o         1 MOL     -0.539746
    152 C52         2.6300   -4.2870   -2.4620 c3        1 MOL      0.072211
    153 C53         2.7520   -5.1080   -1.1600 c3        1 MOL      0.009870
    154 C54         1.3880   -5.5760   -0.6200 c         1 MOL      0.652495
    155 O22         0.4970   -4.7880   -0.3000 o         1 MOL     -0.726522
    156 O23         1.2560   -6.8370   -0.6830 o         1 MOL     -0.726522
    157 H67         4.3020   -2.9470   -1.3300 hn        1 MOL      0.057098
    158 H68         4.5720   -4.8480   -3.3360 h1        1 MOL      0.173069
    159 H69         1.9610   -4.8290   -3.1340 hc        1 MOL      0.005219
    160 H70         2.0020   -3.4310   -2.2230 hc        1 MOL      0.005219
    161 H71         3.2190   -4.4760   -0.3990 hc        1 MOL     -0.025669
    162 H72         3.4190   -5.9600   -1.3060 hc        1 MOL     -0.025669
    163 N14         3.5930   -1.9880   -4.5410 n         1 MOL     -0.168287
    164 C55         3.4420   -1.1720   -5.7960 c3        1 MOL     -0.491385
    165 H73         3.2020   -0.1420   -5.5330 h1        1 MOL      0.166789
    166 H74         4.3750   -1.1960   -6.3590 h1        1 MOL      0.166789
    167 H75         2.6400   -1.5870   -6.4060 h1        1 MOL      0.166789
    168 H76         3.6770   -1.3860   -3.7390 hn        1 MOL      0.231802
    169 Ca1        -1.7800   -3.6130    0.0000 Ca        1 MOL      1.738507
    170 O24        -4.6300   -4.0140   -0.1000 oh        1 MOL     -0.845877
    171 H77        -4.7460   -4.2780   -1.0130 ho        1 MOL      0.415551
    172 H78        -5.4740   -3.6390    0.1500 ho        1 MOL      0.415551
    173 O25        -2.4890   -5.9580    0.9700 oh        1 MOL     -0.845877
    174 H79        -2.4500   -6.4490    1.7880 ho        1 MOL      0.415551
    175 H80        -2.3750   -6.6220    0.2890 ho        1 MOL      0.415551
    176 O26        -1.7600   -5.2800   -2.0710 oh        1 MOL     -0.845877
    177 H81        -2.0980   -5.0630   -2.9430 ho        1 MOL      0.415551
    178 H82        -0.9870   -5.8090   -2.2440 ho        1 MOL      0.415551
    179 O27        -3.3150   -1.1790   -0.0220 oh        1 MOL     -0.845877
    180 H83        -3.8290   -0.8120    0.6980 ho        1 MOL      0.415551
    181 H84        -3.3440   -0.5020   -0.7040 ho        1 MOL      0.415551
@<TRIPOS>BOND
     1    1    2 1   
     2    1    4 1   
     3    1    5 1   
     4    1    6 1   
     5    2    3 2   
     6    2    7 1   
     7    7    8 1   
     8    7   15 1   
     9    8    9 1   
    10    8   11 1   
    11    8   16 1   
    12    9   10 2   
    13    9   19 1   
    14   11   12 1   
    15   11   17 1   
    16   11   18 1   
    17   12   13 1   
    18   12   14 1   
    19   19   20 1   
    20   19   24 1   
    21   20   21 1   
    22   20   23 1   
    23   20   25 1   
    24   21   22 2   
    25   21   29 1   
    26   23   26 1   
    27   23   27 1   
    28   23   28 1   
    29   29   30 1   
    30   29   37 1   
    31   30   31 1   
    32   30   33 1   
    33   30   38 1   
    34   31   32 2   
    35   31   41 1   
    36   33   34 1   
    37   33   39 1   
    38   33   40 1   
    39   34   35 1   
    40   34   36 1   
    41   41   42 1   
    42   41   45 1   
    43   42   43 1   
    44   42   46 1   
    45   42   47 1   
    46   43   44 2   
    47   43   48 1   
    48   48   49 1   
    49   48   56 1   
    50   49   50 1   
    51   49   52 1   
    52   49   57 1   
    53   50   51 2   
    54   50   62 1   
    55   52   53 1   
    56   52   58 1   
    57   52   59 1   
    58   53   54 1   
    59   53   55 2   
    60   54   60 1   
    61   54   61 1   
    62   62   63 1   
    63   62   66 1   
    64   63   64 1   
    65   63   67 1   
    66   63   68 1   
    67   64   65 2   
    68   64   69 1   
    69   69   70 1   
    70   69   76 1   
    71   70   71 1   
    72   70   73 1   
    73   70   77 1   
    74   71   72 2   
    75   71   83 1   
    76   73   74 1   
    77   73   75 1   
    78   73   78 1   
    79   74   80 1   
    80   74   81 1   
    81   74   82 1   
    82   75   79 1   
    83   83   84 1   
    84   83   91 1   
    85   84   85 1   
    86   84   87 1   
    87   84   92 1   
    88   85   86 2   
    89   85  102 1   
    90   87   88 1   
    91   87   89 1   
    92   87   93 1   
    93   88   90 1   
    94   88   94 1   
    95   88   95 1   
    96   89   96 1   
    97   89   97 1   
    98   89   98 1   
    99   90   99 1   
   100   90  100 1   
   101   90  101 1   
   102  102  103 1   
   103  102  110 1   
   104  103  104 1   
   105  103  106 1   
   106  103  111 1   
   107  104  105 2   
   108  104  114 1   
   109  106  107 1   
   110  106  112 1   
   111  106  113 1   
   112  107  108 1   
   113  107  109 1   
   114  114  115 1   
   115  114  125 1   
   116  115  116 1   
   117  115  118 1   
   118  115  126 1   
   119  116  117 2   
   120  116  134 1   
   121  118  119 1   
   122  118  127 1   
   123  118  128 1   
   124  119  120 ar  
   125  119  121 ar  
   126  120  122 ar  
   127  120  129 1   
   128  121  123 ar  
   129  121  130 1   
   130  122  124 ar  
   131  122  131 1   
   132  123  124 ar  
   133  123  132 1   
   134  124  133 1   
   135  134  135 1   
   136  134  140 1   
   137  135  136 1   
   138  135  138 1   
   139  135  141 1   
   140  136  137 2   
   141  136  148 1   
   142  138  139 1   
   143  138  142 1   
   144  138  143 1   
   145  139  140 1   
   146  139  144 1   
   147  139  145 1   
   148  140  146 1   
   149  140  147 1   
   150  148  149 1   
   151  148  157 1   
   152  149  150 1   
   153  149  152 1   
   154  149  158 1   
   155  150  151 2   
   156  150  163 1   
   157  152  153 1   
   158  152  159 1   
   159  152  160 1   
   160  153  154 1   
   161  153  161 1   
   162  153  162 1   
   163  154  155 1   
   164  154  156 1   
   165  163  164 1   
   166  163  168 1   
   167  164  165 1   
   168  164  166 1   
   169  164  167 1   
   170  170  171 1   
   171  170  172 1   
   172  173  174 1   
   173  173  175 1   
   174  176  177 1   
   175  176  178 1   
   176  179  180 1   
   177  179  181 1   
@<TRIPOS>SUBSTRUCTURE
     1 MOL         1 TEMP              0 ****  ****    0 ROOT
