@<TRIPOS>MOLECULE
MOL
  181   177     1     0     0
SMALL
resp


@<TRIPOS>ATOM
      1 C1         10.7550   -3.0130    4.8220 c3        1 MOL     -0.191829
      2 C2          9.6610   -3.1450    3.7400 c         1 MOL      0.505035
      3 O1          9.3310   -4.2930    3.2330 o         1 MOL     -0.594321
      4 H1         10.9890   -1.9600    4.9750 hc        1 MOL      0.059301
      5 H2         10.3970   -3.4450    5.7560 hc        1 MOL      0.059301
      6 H3         11.6530   -3.5410    4.4990 hc        1 MOL      0.059301
      7 N1          9.0400   -2.0210    3.4130 n         1 MOL     -0.228712
      8 C3          9.2330   -0.5730    3.7950 c3        1 MOL     -0.052918
      9 C4         10.2700    0.0720    2.8150 c         1 MOL      0.477517
     10 O2         11.3730    0.3910    3.2620 o         1 MOL     -0.521071
     11 C5          7.8980    0.2930    3.8130 c3        1 MOL     -0.285147
     12 C6          6.8570    0.0860    2.7190 c         1 MOL      0.557817
     13 O3          5.6950   -0.3890    2.9330 o         1 MOL     -0.593594
     14 O4          7.1750    0.5080    1.5810 o         1 MOL     -0.593594
     15 H4          8.3830   -2.3160    2.7000 hn        1 MOL      0.136490
     16 H5          9.5920   -0.4560    4.8220 h1        1 MOL      0.121231
     17 H6          8.0970    1.3620    3.8400 hc        1 MOL      0.111947
     18 H7          7.4370    0.0010    4.7550 hc        1 MOL      0.111947
     19 N2          9.8490    0.1820    1.5380 n         1 MOL     -0.425063
     20 C7         10.6510    0.8780    0.5310 c3        1 MOL      0.282138
     21 C8          9.9490    1.8290   -0.4550 c         1 MOL      0.428477
     22 O5         10.6260    2.4390   -1.3360 o         1 MOL     -0.543810
     23 C9         11.5720   -0.1340   -0.1910 c3        1 MOL     -0.180045
     24 H8          8.9270   -0.1170    1.2640 hn        1 MOL      0.344187
     25 H9         11.3170    1.5130    1.1140 h1        1 MOL      0.023679
     26 H10        12.3660    0.3680   -0.7360 hc        1 MOL      0.039939
     27 H11        11.8570   -0.8700    0.5620 hc        1 MOL      0.039939
     28 H12        10.8790   -0.6900   -0.8310 hc        1 MOL      0.039939
     29 N3          8.6620    2.0240   -0.2560 n         1 MOL     -0.323087
     30 C10         7.8460    2.8410   -1.1380 c3        1 MOL      0.022449
     31 C11         6.7660    3.6190   -0.3690 c         1 MOL      0.495451
     32 O6          6.2180    4.6030   -0.9030 o         1 MOL     -0.549730
     33 C12         7.2080    1.9030   -2.2030 c3        1 MOL     -0.107191
     34 C13         6.4880    0.7610   -1.5600 c         1 MOL      0.616328
     35 O7          7.0570   -0.3410   -1.4600 o         1 MOL     -0.674127
     36 O8          5.3190    0.8950   -1.1110 o         1 MOL     -0.674127
     37 H13         8.2360    1.4950    0.4990 hn        1 MOL      0.052886
     38 H14         8.3910    3.6330   -1.6370 h1        1 MOL      0.099736
     39 H15         7.9910    1.5020   -2.8590 hc        1 MOL      0.061444
     40 H16         6.6040    2.5000   -2.8770 hc        1 MOL      0.061444
     41 N4          6.2520    3.0880    0.7670 n         1 MOL     -0.272392
     42 C14         5.0500    3.5890    1.4930 c3        1 MOL     -0.238391
     43 C15         3.7250    3.6590    0.7320 c         1 MOL      0.442774
     44 O9          2.8260    4.4250    1.1570 o         1 MOL     -0.500527
     45 H17         6.6530    2.2680    1.2020 hn        1 MOL      0.254365
     46 H18         5.3150    4.5360    1.9660 h1        1 MOL      0.139635
     47 H19         4.8450    2.8040    2.2330 h1        1 MOL      0.139635
     48 N5          3.5940    3.1910   -0.5180 n         1 MOL     -0.235297
     49 C16         2.6030    3.5220   -1.4600 c3        1 MOL     -0.008626
     50 C17         2.1960    2.4620   -2.5060 c         1 MOL      0.473470
     51 O10         1.3770    2.7340   -3.4160 o         1 MOL     -0.507655
     52 C18         3.1190    4.8250   -2.1640 c3        1 MOL     -0.069264
     53 C19         3.0040    6.0590   -1.4110 c         1 MOL      0.555614
     54 N6          4.1120    6.5010   -0.8680 n         1 MOL     -0.786979
     55 O11         1.9510    6.6520   -1.2090 o         1 MOL     -0.554632
     56 H20         4.3460    2.5680   -0.7910 hn        1 MOL      0.169119
     57 H21         1.7460    3.8050   -0.8500 h1        1 MOL      0.106818
     58 H22         2.4580    4.9160   -3.0290 hc        1 MOL      0.035037
     59 H23         4.1040    4.6010   -2.5850 hc        1 MOL      0.035037
     60 H24         4.9670    5.9730   -0.9950 hn        1 MOL      0.369950
     61 H25         3.9630    7.2470   -0.2050 hn        1 MOL      0.369950
     62 N7          2.6910    1.2160   -2.4050 n         1 MOL     -0.359925
     63 C20         2.0820    0.0400   -3.1270 c3        1 MOL     -0.130329
     64 C21         2.4010   -1.2750   -2.4520 c         1 MOL      0.448066
     65 O12         3.1390   -1.2550   -1.4740 o         1 MOL     -0.553588
     66 H26         3.4170    0.9330   -1.7550 hn        1 MOL      0.280444
     67 H27         2.5000    0.0840   -4.1300 h1        1 MOL      0.143152
     68 H28         0.9970    0.1470   -3.1190 h1        1 MOL      0.143152
     69 N8          2.1230   -2.4710   -2.9560 n         1 MOL     -0.268992
     70 C22         1.0940   -2.6580   -4.0190 c3        1 MOL     -0.170065
     71 C23        -0.3560   -2.6400   -3.4690 c         1 MOL      0.505773
     72 O13        -1.2990   -2.4910   -4.2450 o         1 MOL     -0.512230
     73 C24         1.3020   -3.9810   -4.7530 c3        1 MOL      0.357992
     74 C25         2.6520   -4.1740   -5.4000 c3        1 MOL     -0.400890
     75 O14         1.1720   -4.9910   -3.7680 oh        1 MOL     -0.601269
     76 H29         2.4820   -3.3170   -2.5300 hn        1 MOL      0.225721
     77 H30         1.1150   -1.8160   -4.6970 h1        1 MOL      0.101417
     78 H31         0.4820   -4.1540   -5.4510 h1        1 MOL      0.037288
     79 H32         1.1590   -5.9030   -4.0700 ho        1 MOL      0.404096
     80 H33         2.8830   -3.2400   -5.9200 hc        1 MOL      0.095648
     81 H34         3.3990   -4.3130   -4.6060 hc        1 MOL      0.095648
     82 H35         2.6840   -4.9990   -6.1120 hc        1 MOL      0.095648
     83 N9         -0.4810   -2.6540   -2.1350 n         1 MOL     -0.324938
     84 C26        -1.8300   -2.6350   -1.4450 c3        1 MOL     -0.019069
     85 C27        -1.9930   -1.3030   -0.7040 c         1 MOL      0.526023
     86 O15        -1.0510   -0.8520    0.0070 o         1 MOL     -0.588936
     87 C28        -2.1200   -3.9350   -0.5160 c3        1 MOL      0.049445
     88 C29        -1.5700   -5.2120   -1.1790 c3        1 MOL      0.115106
     89 C30        -3.5720   -4.1840   -0.0490 c3        1 MOL     -0.142924
     90 C31        -2.2920   -5.6570   -2.5050 c3        1 MOL     -0.105744
     91 H36         0.3030   -2.7320   -1.5040 hn        1 MOL      0.249853
     92 H37        -2.5590   -2.6750   -2.2530 h1        1 MOL      0.129395
     93 H38        -1.4650   -3.7070    0.3240 hc        1 MOL     -0.014178
     94 H39        -1.7570   -6.0460   -0.5130 hc        1 MOL     -0.064207
     95 H40        -0.4850   -5.1610   -1.2930 hc        1 MOL     -0.064207
     96 H41        -3.9350   -3.1710    0.1090 hc        1 MOL      0.055036
     97 H42        -4.1250   -4.6960   -0.8360 hc        1 MOL      0.055036
     98 H43        -3.7020   -4.7060    0.8910 hc        1 MOL      0.055036
     99 H44        -2.4130   -4.7850   -3.1390 hc        1 MOL      0.028990
    100 H45        -1.6020   -6.3570   -2.9840 hc        1 MOL      0.028990
    101 H46        -3.2770   -6.0950   -2.3250 hc        1 MOL      0.028990
    102 N10        -3.0600   -0.5080   -0.7220 n         1 MOL     -0.566226
    103 C32        -4.3490   -0.5750   -1.3690 c3        1 MOL      0.563047
    104 C33        -5.4360    0.3070   -0.5930 c         1 MOL      0.631333
    105 O16        -5.0950    1.1290    0.2460 o         1 MOL     -0.573461
    106 C34        -4.1740   -0.0300   -2.8160 c3        1 MOL     -0.338659
    107 C35        -5.4580   -0.1380   -3.7040 c         1 MOL      0.759285
    108 O17        -5.4350    0.5810   -4.7990 o         1 MOL     -0.724169
    109 O18        -6.2980   -1.0170   -3.4900 o         1 MOL     -0.724169
    110 H47        -2.8720    0.2340   -0.0680 hn        1 MOL      0.276740
    111 H48        -4.7520   -1.5940   -1.3790 h1        1 MOL     -0.086410
    112 H49        -3.4520   -0.6290   -3.3690 hc        1 MOL      0.049141
    113 H50        -3.9480    1.0340   -2.7460 hc        1 MOL      0.049141
    114 N11        -6.7570    0.1180   -0.8580 n         1 MOL     -0.995875
    115 C36        -7.8990    0.9660   -0.3810 c3        1 MOL      0.711689
    116 C37        -9.2280    0.1670   -0.2700 c         1 MOL      0.096637
    117 O19        -9.4900   -0.7080   -1.0630 o         1 MOL     -0.410486
    118 C38        -7.9600    2.1200   -1.3620 c3        1 MOL     -0.320480
    119 C39        -9.0870    3.0480   -1.1250 ca        1 MOL      0.107839
    120 C40        -8.9980    4.0720   -0.1330 ca        1 MOL     -0.139298
    121 C41       -10.3560    2.8670   -1.7330 ca        1 MOL     -0.139298
    122 C42       -10.0850    4.8380    0.2190 ca        1 MOL     -0.164063
    123 C43       -11.4610    3.6920   -1.3270 ca        1 MOL     -0.164063
    124 C44       -11.3380    4.6430   -0.3360 ca        1 MOL     -0.070845
    125 H51        -7.0260   -0.5060   -1.6100 hn        1 MOL      0.423515
    126 H52        -7.5200    1.3120    0.5770 h1        1 MOL     -0.034576
    127 H53        -8.2170    1.7200   -2.3370 hc        1 MOL      0.101670
    128 H54        -7.0060    2.6240   -1.5340 hc        1 MOL      0.101670
    129 H55        -8.0440    4.1840    0.3530 ha        1 MOL      0.122457
    130 H56       -10.4720    2.0760   -2.4540 ha        1 MOL      0.122457
    131 H57       -10.0350    5.3980    1.1470 ha        1 MOL      0.101839
    132 H58       -12.4100    3.4830   -1.7970 ha        1 MOL      0.101839
    133 H59       -12.1680    5.2560   -0.0250 ha        1 MOL      0.082791
    134 N12       -10.1990    0.5370    0.6440 n         1 MOL      0.197324
    135 C45        -9.8990    1.4430    1.7840 c3        1 MOL     -0.065493
    136 C46        -8.8900    0.8960    2.7790 c         1 MOL      0.521299
    137 O20        -8.1330    1.7540    3.3020 o         1 MOL     -0.561056
    138 C47       -11.2960    1.5600    2.4910 c3        1 MOL      0.090429
    139 C48       -12.0420    0.3220    2.0640 c3        1 MOL     -0.050339
    140 C49       -11.5490    0.1090    0.6100 c3        1 MOL      0.003521
    141 H60        -9.5230    2.4400    1.5870 h1        1 MOL      0.018931
    142 H61       -11.2790    1.6570    3.5810 hc        1 MOL     -0.021545
    143 H62       -11.8100    2.4330    2.0830 hc        1 MOL     -0.021545
    144 H63       -11.8090   -0.4930    2.7400 hc        1 MOL      0.009054
    145 H64       -13.0870    0.6090    2.1680 hc        1 MOL      0.009054
    146 H65       -11.6150   -0.9290    0.2880 h1        1 MOL      0.005037
    147 H66       -12.1100    0.7430   -0.0750 h1        1 MOL      0.005037
    148 N13        -8.6390   -0.4250    2.8880 n         1 MOL     -0.496771
    149 C50        -7.3850   -0.8930    3.4410 c3        1 MOL      0.316434
    150 C51        -7.4440   -0.8170    5.0390 c         1 MOL      0.401335
    151 O21        -8.1140   -1.6680    5.6480 o         1 MOL     -0.554644
    152 C52        -7.1950   -2.3350    3.1170 c3        1 MOL     -0.323926
    153 C53        -7.0290   -2.4520    1.5990 c3        1 MOL      0.203220
    154 C54        -7.1090   -3.9330    1.0600 c         1 MOL      0.665589
    155 O22        -7.5070   -4.2200   -0.0550 o         1 MOL     -0.669883
    156 O23        -7.0460   -4.8740    1.9170 o         1 MOL     -0.669883
    157 H67        -9.1620   -1.1440    2.4140 hn        1 MOL      0.301754
    158 H68        -6.5280   -0.3030    3.1130 h1        1 MOL      0.060063
    159 H69        -8.1210   -2.8990    3.2760 hc        1 MOL      0.066587
    160 H70        -6.3860   -2.9070    3.5670 hc        1 MOL      0.066587
    161 H71        -6.0700   -2.0620    1.2600 hc        1 MOL     -0.084312
    162 H72        -7.8350   -1.9870    1.0360 hc        1 MOL     -0.084312
    163 N14        -6.6590   -0.0010    5.8220 n         1 MOL     -0.394750
    164 C55        -5.7650    1.1810    5.5110 c3        1 MOL     -0.058227
    165 H73        -4.7840    1.0210    5.9590 h1        1 MOL      0.057158
    166 H74        -5.6590    1.2830    4.4310 h1        1 MOL      0.057158
    167 H75        -6.2080    2.0890    5.9200 h1        1 MOL      0.057158
    168 H76        -6.7990   -0.0440    6.8160 hn        1 MOL      0.277069
    169 Ca1         5.2890   -1.1690    0.4010 Ca        1 MOL      1.708378
    170 O24         4.0740   -3.1700    1.4660 oh        1 MOL     -0.845526
    171 H77         3.5780   -3.2040    2.2860 ho        1 MOL      0.408494
    172 H78         4.3290   -4.0800    1.2950 ho        1 MOL      0.408494
    173 O25         7.1570   -2.8500    1.3110 oh        1 MOL     -0.845526
    174 H79         6.9430   -3.5680    1.9140 ho        1 MOL      0.408494
    175 H80         7.8640   -3.2040    0.7650 ho        1 MOL      0.408494
    176 O26         3.0240    0.0830    1.1230 oh        1 MOL     -0.845526
    177 H81         2.5070    0.5050    0.4240 ho        1 MOL      0.408494
    178 H82         2.4700    0.1580    1.9010 ho        1 MOL      0.408494
    179 O27         5.2260   -3.1420   -1.4590 oh        1 MOL     -0.845526
    180 H83         4.6560   -3.8940   -1.5570 ho        1 MOL      0.408494
    181 H84         5.7880   -3.1640   -2.2300 ho        1 MOL      0.408494
@<TRIPOS>BOND
     1    1    2 1   
     2    1    4 1   
     3    1    5 1   
     4    1    6 1   
     5    2    3 2   
     6    2    7 1   
     7    7    8 1   
     8    7   15 1   
     9    8    9 1   
    10    8   11 1   
    11    8   16 1   
    12    9   10 2   
    13    9   19 1   
    14   11   12 1   
    15   11   17 1   
    16   11   18 1   
    17   12   13 1   
    18   12   14 1   
    19   19   20 1   
    20   19   24 1   
    21   20   21 1   
    22   20   23 1   
    23   20   25 1   
    24   21   22 2   
    25   21   29 1   
    26   23   26 1   
    27   23   27 1   
    28   23   28 1   
    29   29   30 1   
    30   29   37 1   
    31   30   31 1   
    32   30   33 1   
    33   30   38 1   
    34   31   32 2   
    35   31   41 1   
    36   33   34 1   
    37   33   39 1   
    38   33   40 1   
    39   34   35 1   
    40   34   36 1   
    41   41   42 1   
    42   41   45 1   
    43   42   43 1   
    44   42   46 1   
    45   42   47 1   
    46   43   44 2   
    47   43   48 1   
    48   48   49 1   
    49   48   56 1   
    50   49   50 1   
    51   49   52 1   
    52   49   57 1   
    53   50   51 2   
    54   50   62 1   
    55   52   53 1   
    56   52   58 1   
    57   52   59 1   
    58   53   54 1   
    59   53   55 2   
    60   54   60 1   
    61   54   61 1   
    62   62   63 1   
    63   62   66 1   
    64   63   64 1   
    65   63   67 1   
    66   63   68 1   
    67   64   65 2   
    68   64   69 1   
    69   69   70 1   
    70   69   76 1   
    71   70   71 1   
    72   70   73 1   
    73   70   77 1   
    74   71   72 2   
    75   71   83 1   
    76   73   74 1   
    77   73   75 1   
    78   73   78 1   
    79   74   80 1   
    80   74   81 1   
    81   74   82 1   
    82   75   79 1   
    83   83   84 1   
    84   83   91 1   
    85   84   85 1   
    86   84   87 1   
    87   84   92 1   
    88   85   86 2   
    89   85  102 1   
    90   87   88 1   
    91   87   89 1   
    92   87   93 1   
    93   88   90 1   
    94   88   94 1   
    95   88   95 1   
    96   89   96 1   
    97   89   97 1   
    98   89   98 1   
    99   90   99 1   
   100   90  100 1   
   101   90  101 1   
   102  102  103 1   
   103  102  110 1   
   104  103  104 1   
   105  103  106 1   
   106  103  111 1   
   107  104  105 2   
   108  104  114 1   
   109  106  107 1   
   110  106  112 1   
   111  106  113 1   
   112  107  108 1   
   113  107  109 1   
   114  114  115 1   
   115  114  125 1   
   116  115  116 1   
   117  115  118 1   
   118  115  126 1   
   119  116  117 2   
   120  116  134 1   
   121  118  119 1   
   122  118  127 1   
   123  118  128 1   
   124  119  120 ar  
   125  119  121 ar  
   126  120  122 ar  
   127  120  129 1   
   128  121  123 ar  
   129  121  130 1   
   130  122  124 ar  
   131  122  131 1   
   132  123  124 ar  
   133  123  132 1   
   134  124  133 1   
   135  134  135 1   
   136  134  140 1   
   137  135  136 1   
   138  135  138 1   
   139  135  141 1   
   140  136  137 2   
   141  136  148 1   
   142  138  139 1   
   143  138  142 1   
   144  138  143 1   
   145  139  140 1   
   146  139  144 1   
   147  139  145 1   
   148  140  146 1   
   149  140  147 1   
   150  148  149 1   
   151  148  157 1   
   152  149  150 1   
   153  149  152 1   
   154  149  158 1   
   155  150  151 2   
   156  150  163 1   
   157  152  153 1   
   158  152  159 1   
   159  152  160 1   
   160  153  154 1   
   161  153  161 1   
   162  153  162 1   
   163  154  155 1   
   164  154  156 1   
   165  163  164 1   
   166  163  168 1   
   167  164  165 1   
   168  164  166 1   
   169  164  167 1   
   170  170  171 1   
   171  170  172 1   
   172  173  174 1   
   173  173  175 1   
   174  176  177 1   
   175  176  178 1   
   176  179  180 1   
   177  179  181 1   
@<TRIPOS>SUBSTRUCTURE
     1 MOL         1 TEMP              0 ****  ****    0 ROOT
