@<TRIPOS>MOLECULE
MOL
  192   187     1     0     0
SMALL
resp


@<TRIPOS>ATOM
      1 C1          5.6290    0.0960    6.0500 c3        1 MOL     -0.231643
      2 C2          4.9990    0.1940    4.6530 c         1 MOL      0.656260
      3 O1          4.5750    1.2950    4.2290 o         1 MOL     -0.580316
      4 H1          6.6160    0.5590    6.0360 hc        1 MOL      0.060780
      5 H2          4.9960    0.6110    6.7720 hc        1 MOL      0.060780
      6 H3          5.7260   -0.9530    6.3320 hc        1 MOL      0.060780
      7 N1          5.0220   -0.8430    3.8710 n         1 MOL     -0.508512
      8 C3          4.8450   -0.7700    2.4000 c3        1 MOL      0.780159
      9 C4          3.4100   -0.4490    1.9650 c         1 MOL     -0.613112
     10 O2          3.1250   -0.4880    0.7460 o         1 MOL     -0.019017
     11 C5          5.2980   -2.1510    1.7850 c3        1 MOL      0.017123
     12 C6          6.7810   -2.5650    2.1450 c         1 MOL      0.520891
     13 O3          7.6730   -2.7570    1.2770 o         1 MOL     -0.636752
     14 O4          7.1180   -2.5750    3.4020 o         1 MOL     -0.636752
     15 H4          5.4230   -1.7190    4.1970 hn        1 MOL      0.196788
     16 H5          5.4830    0.0170    2.0050 h1        1 MOL     -0.042410
     17 H6          5.2550   -2.0910    0.6960 hc        1 MOL     -0.093395
     18 H7          4.7210   -2.9670    2.2190 hc        1 MOL     -0.093395
     19 N2          2.4060   -0.2480    2.8930 n         1 MOL      0.000665
     20 C7          0.9770   -0.3640    2.5730 c3        1 MOL     -0.296866
     21 C8          0.2650    1.0140    2.5720 c         1 MOL      0.529622
     22 O5          0.3030    1.6580    3.6320 o         1 MOL     -0.498029
     23 C9          0.3710   -1.3770    3.5960 c3        1 MOL     -0.006762
     24 C10         0.6330   -2.9450    3.5980 c3        1 MOL     -0.260449
     25 C11         2.0940   -3.4840    3.4700 c3        1 MOL      0.445402
     26 C12         2.0280   -5.0590    3.3870 c3        1 MOL     -0.176368
     27 N3          3.2800   -5.6710    2.9000 n4        1 MOL     -0.272023
     28 H8          2.6620   -0.1560    3.8640 hn        1 MOL      0.224972
     29 H9          0.9000   -0.8970    1.6190 h1        1 MOL      0.503823
     30 H10        -0.7060   -1.2800    3.4740 hc        1 MOL      0.048485
     31 H11         0.6710   -1.0520    4.5910 hc        1 MOL      0.048485
     32 H12         0.1030   -3.3010    2.7180 hc        1 MOL      0.056706
     33 H13         0.2900   -3.3440    4.5510 hc        1 MOL      0.056706
     34 H14         2.6770   -3.1530    4.3300 hc        1 MOL     -0.098835
     35 H15         2.5340   -3.0420    2.5810 hc        1 MOL     -0.098835
     36 H16         1.1340   -5.3170    2.8160 hx        1 MOL      0.115874
     37 H17         1.7670   -5.4940    4.3590 hx        1 MOL      0.115874
     38 H18         3.3590   -6.6440    3.1550 hn        1 MOL      0.305293
     39 H19         3.3260   -5.6000    1.8930 hn        1 MOL      0.305293
     40 H20         4.2080   -5.3750    3.1820 hn        1 MOL      0.305293
     41 N4         -0.4740    1.4580    1.5040 n         1 MOL     -0.310188
     42 C13        -0.9800    0.8230    0.2770 c3        1 MOL     -0.232629
     43 C14        -1.4200   -0.6560    0.5140 c         1 MOL      0.552608
     44 O6         -0.8960   -1.6160    0.0150 o         1 MOL     -0.549658
     45 C15        -0.0840    0.9730   -0.9530 c3        1 MOL     -1.088110
     46 C16         0.5370    2.3300   -1.3240 c         1 MOL      0.794532
     47 O7          1.2140    2.4280   -2.4200 o         1 MOL     -0.682591
     48 O8          0.1640    3.4160   -0.7460 o         1 MOL     -0.682591
     49 H21        -0.9460    2.3280    1.7280 hn        1 MOL      0.149434
     50 H22        -1.8990    1.3200   -0.0090 h1        1 MOL      0.183903
     51 H23        -0.6270    0.4920   -1.7710 hc        1 MOL      0.472719
     52 H24         0.8510    0.4230   -0.8000 hc        1 MOL      0.472719
     53 N5         -2.3690   -0.8320    1.4400 n         1 MOL     -0.061356
     54 C17        -3.2460    0.1260    2.0930 c3        1 MOL      0.004912
     55 C18        -4.4310   -0.5180    2.8480 c         1 MOL      0.383698
     56 O9         -4.4250   -1.7540    3.0670 o         1 MOL     -0.485100
     57 H25        -2.3910   -1.8030    1.7140 hn        1 MOL      0.152434
     58 H26        -3.8200    0.5770    1.2790 h1        1 MOL      0.039539
     59 H27        -2.8050    0.8600    2.7640 h1        1 MOL      0.039539
     60 N6         -5.3740    0.2410    3.4190 n         1 MOL     -0.399850
     61 C19        -5.8640    1.4750    2.8620 c3        1 MOL      0.092446
     62 C20        -6.9350    1.1780    1.7160 c         1 MOL      0.584127
     63 O10        -7.5350    0.1000    1.6330 o         1 MOL     -0.456701
     64 C21        -6.5030    2.3230    3.9630 c3        1 MOL     -0.221296
     65 C22        -7.6400    1.5530    4.7020 c         1 MOL      0.691168
     66 O11        -8.7030    2.1500    4.7900 o         1 MOL     -0.634247
     67 O12        -7.6080    0.3500    5.0530 o         1 MOL     -0.634247
     68 H28        -6.1170   -0.2000    3.9420 hn        1 MOL      0.276699
     69 H29        -5.1060    2.1220    2.4210 h1        1 MOL     -0.002609
     70 H30        -6.9200    3.1880    3.4460 hc        1 MOL      0.028229
     71 H31        -5.6780    2.5390    4.6500 hc        1 MOL      0.028229
     72 N7         -7.1730    2.1760    0.8490 n         1 MOL     -0.283305
     73 C23        -8.2090    2.0770   -0.1960 c3        1 MOL     -0.418663
     74 C24        -8.0700    1.0310   -1.2260 c         1 MOL      0.467878
     75 O13        -9.0780    0.4780   -1.6750 o         1 MOL     -0.517865
     76 H32        -6.6700    3.0510    0.8880 hn        1 MOL      0.221693
     77 H33        -8.1430    3.0520   -0.6680 h1        1 MOL      0.194966
     78 H34        -9.1740    1.9750    0.2940 h1        1 MOL      0.194966
     79 N8         -6.8870    0.6430   -1.4910 n         1 MOL     -0.088760
     80 C25        -6.5010   -0.6650   -2.0420 c3        1 MOL     -0.393759
     81 C26        -5.2240   -1.2190   -1.4130 c         1 MOL      0.632758
     82 O14        -4.3200   -0.4770   -0.8840 o         1 MOL     -0.461356
     83 C27        -6.4440   -0.4280   -3.6500 c3        1 MOL      0.385242
     84 C28        -5.5550    0.6830   -4.1420 c3        1 MOL      0.025365
     85 O15        -7.7430   -0.2080   -4.0990 oh        1 MOL     -0.612364
     86 H35        -6.0730    1.1070   -1.1200 hn        1 MOL      0.123495
     87 H36        -7.3080   -1.3770   -1.9360 h1        1 MOL      0.184419
     88 H37        -6.0750   -1.3520   -4.0990 h1        1 MOL      0.001523
     89 H38        -8.2830    0.0030   -3.3230 ho        1 MOL      0.358611
     90 H39        -4.6840    0.8240   -3.4990 hc        1 MOL     -0.017828
     91 H40        -5.2890    0.6100   -5.1940 hc        1 MOL     -0.017828
     92 H41        -6.1170    1.6190   -4.1360 hc        1 MOL     -0.017828
     93 N9         -5.0750   -2.5710   -1.4590 n         1 MOL     -0.646634
     94 C29        -3.9260   -3.3250   -0.8240 c3        1 MOL      0.019375
     95 C30        -2.8590   -3.6740   -1.9100 c         1 MOL      0.499790
     96 O16        -2.5080   -4.8280   -2.2020 o         1 MOL     -0.539188
     97 C31        -4.5000   -4.5800   -0.0850 c3        1 MOL      0.106256
     98 C32        -5.7840   -4.1890    0.7190 c3        1 MOL      0.140250
     99 C33        -3.4070   -5.0230    0.8480 c3        1 MOL     -0.109245
    100 C34        -6.4800   -5.2850    1.5150 c3        1 MOL     -0.393648
    101 H42        -5.8570   -3.0610   -1.8810 hn        1 MOL      0.343039
    102 H43        -3.4670   -2.5470   -0.2100 h1        1 MOL      0.069524
    103 H44        -4.6820   -5.4380   -0.7290 hc        1 MOL      0.015206
    104 H45        -6.5250   -3.9720   -0.0620 hc        1 MOL      0.005123
    105 H46        -5.7060   -3.2390    1.2260 hc        1 MOL      0.005123
    106 H47        -2.3770   -5.0240    0.4840 hc        1 MOL      0.010152
    107 H48        -3.4540   -4.4150    1.7440 hc        1 MOL      0.010152
    108 H49        -3.6680   -6.0330    1.1760 hc        1 MOL      0.010152
    109 H50        -7.3980   -4.8680    1.9460 hc        1 MOL      0.102567
    110 H51        -6.6610   -6.1650    0.9100 hc        1 MOL      0.102567
    111 H52        -5.8830   -5.4870    2.4050 hc        1 MOL      0.102567
    112 N10        -2.5030   -2.6150   -2.6230 n         1 MOL     -0.053912
    113 C35        -1.6630   -2.6800   -3.8560 c3        1 MOL     -0.213889
    114 C36        -0.1220   -2.7480   -3.5150 c         1 MOL      0.364582
    115 O17         0.6700   -3.2720   -4.3150 o         1 MOL     -0.519684
    116 C37        -1.8770   -1.5410   -4.8750 c3        1 MOL      0.341025
    117 C38        -1.5460   -0.1490   -4.4380 c3        1 MOL     -0.211420
    118 O18        -3.3060   -1.4190   -4.9810 oh        1 MOL     -0.706670
    119 H53        -2.7200   -1.6960   -2.2730 hn        1 MOL      0.214472
    120 H54        -1.9130   -3.6000   -4.3750 h1        1 MOL      0.154508
    121 H55        -1.5250   -1.7210   -5.8820 h1        1 MOL      0.054952
    122 H56        -3.4610   -0.9510   -5.7970 ho        1 MOL      0.415118
    123 H57        -0.4890    0.0400   -4.2300 hc        1 MOL      0.053234
    124 H58        -1.8590    0.5760   -5.1920 hc        1 MOL      0.053234
    125 H59        -2.0290    0.0550   -3.4820 hc        1 MOL      0.053234
    126 N11         0.3200   -2.1700   -2.4020 n         1 MOL     -0.005784
    127 C39         1.6700   -2.1440   -1.8180 c3        1 MOL      0.024016
    128 C40         2.7370   -1.3420   -2.6660 c         1 MOL      0.322127
    129 O19         2.7560   -1.2490   -3.9130 o         1 MOL     -0.486468
    130 C41         2.0890   -3.4900   -1.3290 c3        1 MOL      0.273613
    131 C42         1.1170   -4.1020   -0.3490 c3        1 MOL      0.024515
    132 O20         3.3420   -3.3950   -0.6630 oh        1 MOL     -0.472132
    133 H60        -0.4120   -2.0570   -1.7160 hn        1 MOL     -0.124914
    134 H61         1.5300   -1.4900   -0.9610 h1        1 MOL     -0.227579
    135 H62         2.2130   -4.2290   -2.1220 h1        1 MOL      0.036520
    136 H63         3.5680   -4.3050   -0.4620 ho        1 MOL      0.296955
    137 H64         1.0600   -3.4950    0.5480 hc        1 MOL     -0.011743
    138 H65         0.1030   -4.1070   -0.7360 hc        1 MOL     -0.011743
    139 H66         1.3550   -5.1650   -0.2670 hc        1 MOL     -0.011743
    140 N12         3.7530   -0.8080   -2.0480 n         1 MOL      0.077228
    141 C43         4.8730   -0.1130   -2.7210 c3        1 MOL     -0.342258
    142 C44         5.0190    1.3190   -2.1440 c         1 MOL      0.588866
    143 O21         5.8380    2.1230   -2.6150 o         1 MOL     -0.599772
    144 C45         6.2280   -0.8550   -2.3920 c3        1 MOL      0.072682
    145 C46         6.3950   -2.1770   -2.9570 c3        1 MOL      0.268773
    146 C47         7.6360   -2.9440   -2.3310 c3        1 MOL     -0.059954
    147 C48         8.9280   -2.4180   -3.0110 c3        1 MOL      0.108316
    148 N13        10.0920   -3.0650   -2.4600 n4        1 MOL     -0.356266
    149 H67         3.8550   -0.9880   -1.0650 hn        1 MOL      0.045524
    150 H68         4.7380   -0.0200   -3.7990 h1        1 MOL      0.156537
    151 H69         6.3580   -0.7080   -1.3190 hc        1 MOL      0.020215
    152 H70         7.1040   -0.3430   -2.7790 hc        1 MOL      0.020215
    153 H71         6.5690   -2.0540   -4.0200 hc        1 MOL     -0.072922
    154 H72         5.5390   -2.8010   -2.6970 hc        1 MOL     -0.072922
    155 H73         7.4480   -3.9750   -2.6050 hc        1 MOL      0.000064
    156 H74         7.6910   -2.7310   -1.2560 hc        1 MOL      0.000064
    157 H75         8.9950   -1.3390   -2.8370 hx        1 MOL      0.048444
    158 H76         8.8770   -2.7130   -4.0510 hx        1 MOL      0.048444
    159 H77        10.1740   -2.7630   -1.4990 hn        1 MOL      0.324882
    160 H78         9.9760   -4.0690   -2.4100 hn        1 MOL      0.324882
    161 H79        10.9250   -2.9170   -3.0190 hn        1 MOL      0.324882
    162 N14         4.3220    1.6910   -1.0410 n         1 MOL      0.016033
    163 C49         4.4310    3.0340   -0.3500 c3        1 MOL     -0.491399
    164 C50         5.8270    3.2990    0.1490 c         1 MOL      0.514195
    165 O22         6.4210    2.3450    0.6630 o         1 MOL     -0.519896
    166 C51         3.3430    3.2370    0.8070 c3        1 MOL      0.892058
    167 C52         3.3200    4.6470    1.3900 c3        1 MOL     -1.251166
    168 C53         3.0340    5.7880    0.4200 c         1 MOL      1.098316
    169 O23         3.9950    6.1730   -0.2830 o         1 MOL     -0.813540
    170 O24         1.9390    6.3250    0.3040 o         1 MOL     -0.813540
    171 H80         3.6490    0.9970   -0.7420 hn        1 MOL     -0.039218
    172 H81         4.2050    3.8040   -1.0900 h1        1 MOL      0.170841
    173 H82         3.4590    2.4490    1.5540 hc        1 MOL     -0.114001
    174 H83         2.3770    3.1420    0.2950 hc        1 MOL     -0.114001
    175 H84         4.3100    4.8620    1.7690 hc        1 MOL      0.281592
    176 H85         2.5750    4.6020    2.1870 hc        1 MOL      0.281592
    177 N15         6.3640    4.5000   -0.0530 n         1 MOL     -0.318321
    178 C54         7.6930    4.9070    0.3330 c3        1 MOL     -0.146265
    179 H86         8.3760    4.7580   -0.5040 h1        1 MOL      0.076226
    180 H87         7.6850    5.9620    0.6100 h1        1 MOL      0.076226
    181 H88         8.0240    4.3100    1.1830 h1        1 MOL      0.076226
    182 H89         5.7680    5.1800   -0.5140 hn        1 MOL      0.384660
    183 Ca1        -0.6030    5.9230   -0.3510 Ca        1 MOL      1.658019
    184 O25        -0.2020    5.1390   -2.8550 oh        1 MOL     -0.880312
    185 H90        -0.6430    5.0890   -3.7060 ho        1 MOL      0.435519
    186 H91         0.4070    4.4070   -2.8580 ho        1 MOL      0.435519
    187 O26        -0.3580    8.1780   -1.9380 oh        1 MOL     -0.880312
    188 H92        -0.4900    9.1240   -1.9450 ho        1 MOL      0.435519
    189 H93        -0.2740    7.9360   -2.8630 ho        1 MOL      0.435519
    190 O27        -2.9650    6.5630   -1.6330 oh        1 MOL     -0.880312
    191 H94        -3.2280    7.4560   -1.4050 ho        1 MOL      0.435519
    192 H95        -3.4280    6.3680   -2.4430 ho        1 MOL      0.435519
@<TRIPOS>BOND
     1    1    2 1   
     2    1    4 1   
     3    1    5 1   
     4    1    6 1   
     5    2    3 2   
     6    2    7 1   
     7    7    8 1   
     8    7   15 1   
     9    8    9 1   
    10    8   11 1   
    11    8   16 1   
    12    9   10 2   
    13    9   19 1   
    14   11   12 1   
    15   11   17 1   
    16   11   18 1   
    17   12   13 1   
    18   12   14 1   
    19   19   20 1   
    20   19   28 1   
    21   20   21 1   
    22   20   23 1   
    23   20   29 1   
    24   21   22 2   
    25   21   41 1   
    26   23   24 1   
    27   23   30 1   
    28   23   31 1   
    29   24   25 1   
    30   24   32 1   
    31   24   33 1   
    32   25   26 1   
    33   25   34 1   
    34   25   35 1   
    35   26   27 1   
    36   26   36 1   
    37   26   37 1   
    38   27   38 1   
    39   27   39 1   
    40   27   40 1   
    41   41   42 1   
    42   41   49 1   
    43   42   43 1   
    44   42   45 1   
    45   42   50 1   
    46   43   44 2   
    47   43   53 1   
    48   45   46 1   
    49   45   51 1   
    50   45   52 1   
    51   46   47 1   
    52   46   48 1   
    53   53   54 1   
    54   53   57 1   
    55   54   55 1   
    56   54   58 1   
    57   54   59 1   
    58   55   56 2   
    59   55   60 1   
    60   60   61 1   
    61   60   68 1   
    62   61   62 1   
    63   61   64 1   
    64   61   69 1   
    65   62   63 2   
    66   62   72 1   
    67   64   65 1   
    68   64   70 1   
    69   64   71 1   
    70   65   66 1   
    71   65   67 1   
    72   72   73 1   
    73   72   76 1   
    74   73   74 1   
    75   73   77 1   
    76   73   78 1   
    77   74   75 2   
    78   74   79 1   
    79   79   80 1   
    80   79   86 1   
    81   80   81 1   
    82   80   83 1   
    83   80   87 1   
    84   81   82 2   
    85   81   93 1   
    86   83   84 1   
    87   83   85 1   
    88   83   88 1   
    89   84   90 1   
    90   84   91 1   
    91   84   92 1   
    92   85   89 1   
    93   93   94 1   
    94   93  101 1   
    95   94   95 1   
    96   94   97 1   
    97   94  102 1   
    98   95   96 2   
    99   95  112 1   
   100   97   98 1   
   101   97   99 1   
   102   97  103 1   
   103   98  100 1   
   104   98  104 1   
   105   98  105 1   
   106   99  106 1   
   107   99  107 1   
   108   99  108 1   
   109  100  109 1   
   110  100  110 1   
   111  100  111 1   
   112  112  113 1   
   113  112  119 1   
   114  113  114 1   
   115  113  116 1   
   116  113  120 1   
   117  114  115 2   
   118  114  126 1   
   119  116  117 1   
   120  116  118 1   
   121  116  121 1   
   122  117  123 1   
   123  117  124 1   
   124  117  125 1   
   125  118  122 1   
   126  126  127 1   
   127  126  133 1   
   128  127  128 1   
   129  127  130 1   
   130  127  134 1   
   131  128  129 2   
   132  128  140 1   
   133  130  131 1   
   134  130  132 1   
   135  130  135 1   
   136  131  137 1   
   137  131  138 1   
   138  131  139 1   
   139  132  136 1   
   140  140  141 1   
   141  140  149 1   
   142  141  142 1   
   143  141  144 1   
   144  141  150 1   
   145  142  143 2   
   146  142  162 1   
   147  144  145 1   
   148  144  151 1   
   149  144  152 1   
   150  145  146 1   
   151  145  153 1   
   152  145  154 1   
   153  146  147 1   
   154  146  155 1   
   155  146  156 1   
   156  147  148 1   
   157  147  157 1   
   158  147  158 1   
   159  148  159 1   
   160  148  160 1   
   161  148  161 1   
   162  162  163 1   
   163  162  171 1   
   164  163  164 1   
   165  163  166 1   
   166  163  172 1   
   167  164  165 2   
   168  164  177 1   
   169  166  167 1   
   170  166  173 1   
   171  166  174 1   
   172  167  168 1   
   173  167  175 1   
   174  167  176 1   
   175  168  169 1   
   176  168  170 1   
   177  177  178 1   
   178  177  182 1   
   179  178  179 1   
   180  178  180 1   
   181  178  181 1   
   182  184  185 1   
   183  184  186 1   
   184  187  188 1   
   185  187  189 1   
   186  190  191 1   
   187  190  192 1   
@<TRIPOS>SUBSTRUCTURE
     1 MOL         1 TEMP              0 ****  ****    0 ROOT
