@<TRIPOS>MOLECULE
MOL
  189   185     1     0     0
SMALL
resp


@<TRIPOS>ATOM
      1 C1         -5.6400   -5.1140    2.2550 c3        1 MOL     -0.047818
      2 C2         -4.3480   -4.3690    1.8840 c         1 MOL      0.608644
      3 O1         -3.6900   -3.6980    2.6930 o         1 MOL     -0.554327
      4 H1         -6.4710   -4.7100    1.6780 hc        1 MOL     -0.007312
      5 H2         -5.5250   -6.1750    2.0320 hc        1 MOL     -0.007312
      6 H3         -5.8420   -4.9860    3.3190 hc        1 MOL     -0.007312
      7 N1         -3.9580   -4.5790    0.6360 n         1 MOL     -0.654423
      8 C3         -2.8980   -3.8000   -0.0870 c3        1 MOL     -0.005623
      9 C4         -1.4380   -3.8220    0.4950 c         1 MOL      0.729185
     10 O2         -0.6330   -3.2040   -0.1880 o         1 MOL     -0.593483
     11 C5         -3.4470   -2.3860   -0.4210 c3        1 MOL     -0.549678
     12 C6         -4.8580   -2.4700   -0.9120 c         1 MOL      0.854932
     13 O3         -5.8690   -2.3310   -0.1330 o         1 MOL     -0.676407
     14 O4         -5.0710   -2.7300   -2.0980 o         1 MOL     -0.676407
     15 H4         -4.4450   -5.2890    0.1180 hn        1 MOL      0.318406
     16 H5         -2.8010   -4.3220   -1.0380 h1        1 MOL      0.115031
     17 H6         -2.7780   -2.0170   -1.2010 hc        1 MOL      0.177404
     18 H7         -3.5140   -1.6480    0.3750 hc        1 MOL      0.177404
     19 N2         -1.1080   -4.5670    1.5470 n         1 MOL     -0.571312
     20 C7          0.2260   -4.5120    2.2410 c3        1 MOL     -0.029474
     21 C8          1.0570   -5.7790    1.8750 c         1 MOL      0.729746
     22 O5          0.6860   -6.8910    2.0620 o         1 MOL     -0.615355
     23 C9          0.0670   -4.2270    3.7350 c3        1 MOL      0.079186
     24 C10        -0.1800   -2.7580    4.1100 c3        1 MOL      0.105099
     25 C11         1.2880   -4.7330    4.5810 c3        1 MOL     -0.295882
     26 C12        -0.0400   -2.3990    5.6080 c3        1 MOL     -0.274620
     27 H8         -1.9120   -4.9750    1.9970 hn        1 MOL      0.322655
     28 H9          0.7330   -3.7190    1.6970 h1        1 MOL      0.121689
     29 H10        -0.8520   -4.6760    4.1080 hc        1 MOL      0.021365
     30 H11        -1.1730   -2.4720    3.7820 hc        1 MOL      0.067382
     31 H12         0.5140   -2.0250    3.6860 hc        1 MOL      0.067382
     32 H13         2.1230   -4.0500    4.4210 hc        1 MOL      0.065911
     33 H14         1.0760   -4.7950    5.6470 hc        1 MOL      0.065911
     34 H15         1.5050   -5.7800    4.3740 hc        1 MOL      0.065911
     35 H16        -0.3780   -3.2030    6.2620 hc        1 MOL      0.053004
     36 H17         1.0370   -2.2140    5.6810 hc        1 MOL      0.053004
     37 H18        -0.6060   -1.5250    5.9350 hc        1 MOL      0.053004
     38 N3          2.2580   -5.6590    1.2860 n         1 MOL     -0.600186
     39 C13         2.9570   -4.6420    0.5460 c3        1 MOL      0.173730
     40 C14         3.3810   -5.0940   -0.8810 c         1 MOL      0.567935
     41 O6          3.4170   -6.3340   -1.0700 o         1 MOL     -0.562918
     42 C15         4.1520   -4.1320    1.3520 c3        1 MOL     -0.124830
     43 C16         5.1260   -3.3200    0.5650 c         1 MOL      0.742357
     44 O7          6.2290   -3.8380    0.4640 o         1 MOL     -0.713918
     45 O8          4.7830   -2.2930    0.0310 o         1 MOL     -0.713918
     46 H19         2.7220   -6.5470    1.1940 hn        1 MOL      0.301847
     47 H20         2.3300   -3.7510    0.4730 h1        1 MOL     -0.045770
     48 H21         4.7910   -4.8990    1.8060 hc        1 MOL      0.006881
     49 H22         3.7610   -3.5820    2.2040 hc        1 MOL      0.006881
     50 N4          3.7240   -4.1800   -1.8270 n         1 MOL     -0.371109
     51 C17         4.2170   -4.4900   -3.1220 c3        1 MOL     -0.095789
     52 C18         5.3480   -3.5730   -3.6000 c         1 MOL      0.728321
     53 O9          5.8120   -3.7170   -4.7050 o         1 MOL     -0.653061
     54 H23         3.8520   -3.2120   -1.5600 hn        1 MOL      0.250918
     55 H24         3.4510   -4.4960   -3.8930 h1        1 MOL      0.065148
     56 H25         4.6640   -5.4830   -3.0890 h1        1 MOL      0.065148
     57 N5          5.8690   -2.6230   -2.8630 n         1 MOL     -0.666552
     58 C19         6.8630   -1.5390   -3.2990 c3        1 MOL      0.325217
     59 C20         7.7890   -1.1510   -2.1620 c         1 MOL      0.252981
     60 O10         8.9100   -0.6940   -2.3940 o         1 MOL     -0.577996
     61 C21         6.1410   -0.2290   -3.7460 c3        1 MOL     -0.379832
     62 C22         5.0920    0.2780   -2.8670 c         1 MOL      0.814036
     63 O11         5.3530    0.9390   -1.8870 o         1 MOL     -0.698385
     64 O12         3.9360   -0.1550   -3.0620 o         1 MOL     -0.698385
     65 H26         5.3930   -2.4650   -1.9850 hn        1 MOL      0.396438
     66 H27         7.5270   -1.8810   -4.0810 h1        1 MOL      0.062020
     67 H28         5.7720   -0.4960   -4.7320 hc        1 MOL      0.072654
     68 H29         6.8500    0.5950   -3.8380 hc        1 MOL      0.072654
     69 N6          7.3730   -1.2670   -0.8940 n         1 MOL      0.037936
     70 C23         8.1540   -0.8800    0.2990 c3        1 MOL     -0.394777
     71 C24         8.1810    0.6170    0.6100 c         1 MOL      0.587694
     72 O13         8.5820    1.0030    1.6850 o         1 MOL     -0.613794
     73 H30         6.4970   -1.7310   -0.7190 hn        1 MOL      0.134088
     74 H31         9.1670   -1.2740    0.2540 h1        1 MOL      0.159495
     75 H32         7.6030   -1.2040    1.1790 h1        1 MOL      0.159495
     76 N7          7.4970    1.4100   -0.2610 n         1 MOL     -0.120769
     77 C25         7.2690    2.8130   -0.3100 c3        1 MOL      0.160765
     78 C26         6.8250    3.5130    0.9860 c         1 MOL      0.452053
     79 O14         7.2520    4.6530    1.3160 o         1 MOL     -0.533194
     80 C27         8.4310    3.6080   -0.9640 c3        1 MOL     -0.027533
     81 C28         8.9430    2.8890   -2.3100 c3        1 MOL     -0.005296
     82 C29         9.5990    3.8590   -3.2250 c         1 MOL      0.664573
     83 N8         10.2220    3.3280   -4.2540 n         1 MOL     -0.828101
     84 O15         9.4470    5.0760   -3.1290 o         1 MOL     -0.583226
     85 H33         7.1390    0.9620   -1.0870 hn        1 MOL      0.071950
     86 H34         6.4250    2.8690   -0.9990 h1        1 MOL      0.057081
     87 H35         9.2960    3.5510   -0.3040 hc        1 MOL     -0.006065
     88 H36         8.0400    4.6100   -1.1450 hc        1 MOL     -0.006065
     89 H37         8.1420    2.4240   -2.8690 hc        1 MOL      0.002754
     90 H38         9.7220    2.1500   -2.1240 hc        1 MOL      0.002754
     91 H39        10.2390    2.3210   -4.2950 hn        1 MOL      0.350715
     92 H40        10.4310    3.8580   -5.0830 hn        1 MOL      0.350715
     93 N9          5.9790    2.8310    1.8140 n         1 MOL     -0.438297
     94 C30         5.3900    3.3430    3.1550 c3        1 MOL     -0.005499
     95 C31         3.8340    3.0820    3.1620 c         1 MOL      0.616400
     96 O16         3.1490    3.6090    4.0980 o         1 MOL     -0.603072
     97 C32         6.0110    2.4970    4.3480 c3        1 MOL      0.210552
     98 C33         5.8270    0.9750    4.1170 c3        1 MOL     -0.307005
     99 C34         7.5370    2.7250    4.6210 c3        1 MOL     -0.307005
    100 H41         5.7300    1.8960    1.5000 hn        1 MOL      0.254130
    101 H42         5.5470    4.4140    3.2870 h1        1 MOL      0.104941
    102 H43         5.4370    2.7230    5.2540 hc        1 MOL     -0.030955
    103 H44         4.7530    0.8650    3.9600 hc        1 MOL      0.076829
    104 H45         6.3660    0.5300    3.2800 hc        1 MOL      0.076829
    105 H46         6.0320    0.3480    4.9880 hc        1 MOL      0.076829
    106 H47         8.1470    2.4770    3.7550 hc        1 MOL      0.076829
    107 H48         7.6490    3.7640    4.9480 hc        1 MOL      0.076829
    108 H49         7.9890    2.0580    5.3540 hc        1 MOL      0.076829
    109 N10         3.2510    2.3490    2.2070 n         1 MOL     -0.710696
    110 C35         1.7870    2.0500    2.1820 c3        1 MOL      0.517623
    111 C36         1.0450    2.5300    0.8620 c         1 MOL      0.524456
    112 O17         1.6620    2.6680   -0.1670 o         1 MOL     -0.529902
    113 C37         1.6340    0.5130    2.4630 c3        1 MOL     -0.212339
    114 C38         0.3580   -0.1050    1.9930 c         1 MOL      0.280940
    115 N11         0.4450   -0.8750    0.9500 n         1 MOL     -0.607508
    116 O18        -0.6880    0.2380    2.5120 o         1 MOL     -0.514988
    117 H50         3.8880    1.9040    1.5600 hn        1 MOL      0.320227
    118 H51         1.3480    2.6420    2.9880 h1        1 MOL     -0.012020
    119 H52         1.6370    0.3650    3.5400 hc        1 MOL      0.079714
    120 H53         2.5220    0.0820    1.9950 hc        1 MOL      0.079714
    121 H54         1.3130   -0.8730    0.4350 hn        1 MOL      0.381050
    122 H55        -0.4460   -1.1830    0.5920 hn        1 MOL      0.381050
    123 N12        -0.2580    2.5910    0.9150 n         1 MOL     -0.656586
    124 C39        -1.2410    2.8970   -0.1060 c3        1 MOL      0.314440
    125 C40        -2.6110    3.1110    0.6100 c         1 MOL      0.490773
    126 O19        -2.9750    2.2690    1.4490 o         1 MOL     -0.497558
    127 C41        -1.2670    1.7440   -1.1040 c3        1 MOL     -0.177304
    128 C42        -2.4750    1.7760   -2.1140 ca        1 MOL      0.003819
    129 C43        -2.3010    2.3750   -3.3980 ca        1 MOL     -0.111504
    130 C44        -3.7130    1.2810   -1.7590 ca        1 MOL     -0.111504
    131 C45        -3.3600    2.4240   -4.3130 ca        1 MOL     -0.297300
    132 C46        -4.8200    1.3480   -2.6850 ca        1 MOL     -0.297300
    133 C47        -4.6490    1.9010   -4.0040 ca        1 MOL      0.333225
    134 O20        -5.7000    2.0050   -4.8500 oh        1 MOL     -0.436338
    135 H56        -0.6550    2.3210    1.8070 hn        1 MOL      0.287893
    136 H57        -0.9390    3.8330   -0.5700 h1        1 MOL      0.048447
    137 H58        -1.3570    0.8350   -0.5030 hc        1 MOL      0.102845
    138 H59        -0.3040    1.6030   -1.5960 hc        1 MOL      0.102845
    139 H60        -1.3130    2.7330   -3.6530 ha        1 MOL      0.104576
    140 H61        -3.8200    0.9720   -0.7300 ha        1 MOL      0.104576
    141 H62        -3.1640    2.8530   -5.2780 ha        1 MOL      0.148533
    142 H63        -5.7770    0.8820   -2.4790 ha        1 MOL      0.148533
    143 H64        -5.4520    2.4790   -5.6490 ho        1 MOL      0.316043
    144 N13        -3.4050    4.0560    0.0940 n         1 MOL     -0.632101
    145 C48        -4.7620    4.1860    0.5160 c3        1 MOL      0.792740
    146 C49        -5.8670    4.2270   -0.6150 c         1 MOL      0.486423
    147 O21        -5.6740    4.9100   -1.6540 o         1 MOL     -0.516568
    148 C50        -4.8540    5.3060    1.5530 c3        1 MOL     -0.092093
    149 C51        -4.2380    6.6760    1.1960 c3        1 MOL     -0.164215
    150 C52        -4.6570    7.3570   -0.1450 c         1 MOL      0.604846
    151 O22        -3.7510    7.4530   -1.0270 o         1 MOL     -0.646791
    152 O23        -5.8490    7.7040   -0.3010 o         1 MOL     -0.646791
    153 H65        -3.1350    4.5930   -0.7160 hn        1 MOL      0.268738
    154 H66        -4.9650    3.2600    1.0680 h1        1 MOL     -0.207978
    155 H67        -4.4040    4.9650    2.4820 hc        1 MOL      0.013318
    156 H68        -5.9230    5.5320    1.5870 hc        1 MOL      0.013318
    157 H69        -3.1440    6.5760    1.2430 hc        1 MOL      0.006183
    158 H70        -4.4010    7.3580    2.0280 hc        1 MOL      0.006183
    159 N14        -7.0130    3.5610   -0.5290 n         1 MOL     -0.472208
    160 C53        -7.3410    2.4630    0.4100 c3        1 MOL     -0.039447
    161 C54        -7.3120    2.9540    1.8690 c         1 MOL      0.374220
    162 O24        -7.8360    4.0350    2.1860 o         1 MOL     -0.489181
    163 C55        -8.7500    1.8980    0.1700 c3        1 MOL      0.082199
    164 C56        -8.9030    1.2550   -1.2420 c3        1 MOL     -0.022779
    165 C57        -8.5090   -0.2090   -1.3480 c         1 MOL      0.711445
    166 O25        -7.6650   -0.6180   -2.1180 o         1 MOL     -0.792806
    167 O26        -9.3210   -1.0460   -0.7790 o         1 MOL     -0.792806
    168 H71        -7.6450    3.7660   -1.2970 hn        1 MOL      0.282807
    169 H72        -6.6720    1.5980    0.3060 h1        1 MOL      0.087591
    170 H73        -9.5150    2.6650    0.3280 hc        1 MOL     -0.024643
    171 H74        -8.9880    1.2290    0.9990 hc        1 MOL     -0.024643
    172 H75        -8.5450    1.9330   -2.0130 hc        1 MOL      0.026416
    173 H76        -9.9660    1.3380   -1.4580 hc        1 MOL      0.026416
    174 N15        -6.8910    2.1080    2.8610 n         1 MOL     -0.189230
    175 C58        -6.7010    2.4370    4.2620 c3        1 MOL     -0.217432
    176 H77        -7.3380    3.2820    4.5250 h1        1 MOL      0.094973
    177 H78        -6.9660    1.5770    4.8770 h1        1 MOL      0.094973
    178 H79        -5.6580    2.7020    4.4360 h1        1 MOL      0.094973
    179 H80        -6.5510    1.2150    2.5330 hn        1 MOL      0.215906
    180 Ca1        -7.8290   -3.2340   -1.5890 Ca        1 MOL      1.673360
    181 O27        -6.9570   -4.7810   -3.6910 oh        1 MOL     -0.989767
    182 H81        -6.0760   -5.0940   -3.8650 ho        1 MOL      0.461511
    183 H82        -7.2460   -4.3980   -4.5150 ho        1 MOL      0.461511
    184 O28        -8.3920   -3.2330    1.1900 oh        1 MOL     -0.989767
    185 H83        -7.7830   -2.6060    1.5840 ho        1 MOL      0.461511
    186 H84        -9.1300   -3.2520    1.7890 ho        1 MOL      0.461511
    187 O29        -8.9450   -2.8490   -4.0780 oh        1 MOL     -0.989767
    188 H85        -9.8880   -2.9760   -4.1500 ho        1 MOL      0.461511
    189 H86        -8.6790   -2.4890   -4.9180 ho        1 MOL      0.461511
@<TRIPOS>BOND
     1    1    2 1   
     2    1    4 1   
     3    1    5 1   
     4    1    6 1   
     5    2    3 2   
     6    2    7 1   
     7    7    8 1   
     8    7   15 1   
     9    8    9 1   
    10    8   11 1   
    11    8   16 1   
    12    9   10 2   
    13    9   19 1   
    14   11   12 1   
    15   11   17 1   
    16   11   18 1   
    17   12   13 1   
    18   12   14 1   
    19   19   20 1   
    20   19   27 1   
    21   20   21 1   
    22   20   23 1   
    23   20   28 1   
    24   21   22 2   
    25   21   38 1   
    26   23   24 1   
    27   23   25 1   
    28   23   29 1   
    29   24   26 1   
    30   24   30 1   
    31   24   31 1   
    32   25   32 1   
    33   25   33 1   
    34   25   34 1   
    35   26   35 1   
    36   26   36 1   
    37   26   37 1   
    38   38   39 1   
    39   38   46 1   
    40   39   40 1   
    41   39   42 1   
    42   39   47 1   
    43   40   41 2   
    44   40   50 1   
    45   42   43 1   
    46   42   48 1   
    47   42   49 1   
    48   43   44 1   
    49   43   45 1   
    50   50   51 1   
    51   50   54 1   
    52   51   52 1   
    53   51   55 1   
    54   51   56 1   
    55   52   53 2   
    56   52   57 1   
    57   57   58 1   
    58   57   65 1   
    59   58   59 1   
    60   58   61 1   
    61   58   66 1   
    62   59   60 2   
    63   59   69 1   
    64   61   62 1   
    65   61   67 1   
    66   61   68 1   
    67   62   63 1   
    68   62   64 1   
    69   69   70 1   
    70   69   73 1   
    71   70   71 1   
    72   70   74 1   
    73   70   75 1   
    74   71   72 2   
    75   71   76 1   
    76   76   77 1   
    77   76   85 1   
    78   77   78 1   
    79   77   80 1   
    80   77   86 1   
    81   78   79 2   
    82   78   93 1   
    83   80   81 1   
    84   80   87 1   
    85   80   88 1   
    86   81   82 1   
    87   81   89 1   
    88   81   90 1   
    89   82   83 1   
    90   82   84 2   
    91   83   91 1   
    92   83   92 1   
    93   93   94 1   
    94   93  100 1   
    95   94   95 1   
    96   94   97 1   
    97   94  101 1   
    98   95   96 2   
    99   95  109 1   
   100   97   98 1   
   101   97   99 1   
   102   97  102 1   
   103   98  103 1   
   104   98  104 1   
   105   98  105 1   
   106   99  106 1   
   107   99  107 1   
   108   99  108 1   
   109  109  110 1   
   110  109  117 1   
   111  110  111 1   
   112  110  113 1   
   113  110  118 1   
   114  111  112 2   
   115  111  123 1   
   116  113  114 1   
   117  113  119 1   
   118  113  120 1   
   119  114  115 1   
   120  114  116 2   
   121  115  121 1   
   122  115  122 1   
   123  123  124 1   
   124  123  135 1   
   125  124  125 1   
   126  124  127 1   
   127  124  136 1   
   128  125  126 2   
   129  125  144 1   
   130  127  128 1   
   131  127  137 1   
   132  127  138 1   
   133  128  129 ar  
   134  128  130 ar  
   135  129  131 ar  
   136  129  139 1   
   137  130  132 ar  
   138  130  140 1   
   139  131  133 ar  
   140  131  141 1   
   141  132  133 ar  
   142  132  142 1   
   143  133  134 1   
   144  134  143 1   
   145  144  145 1   
   146  144  153 1   
   147  145  146 1   
   148  145  148 1   
   149  145  154 1   
   150  146  147 2   
   151  146  159 1   
   152  148  149 1   
   153  148  155 1   
   154  148  156 1   
   155  149  150 1   
   156  149  157 1   
   157  149  158 1   
   158  150  151 1   
   159  150  152 1   
   160  159  160 1   
   161  159  168 1   
   162  160  161 1   
   163  160  163 1   
   164  160  169 1   
   165  161  162 2   
   166  161  174 1   
   167  163  164 1   
   168  163  170 1   
   169  163  171 1   
   170  164  165 1   
   171  164  172 1   
   172  164  173 1   
   173  165  166 1   
   174  165  167 1   
   175  174  175 1   
   176  174  179 1   
   177  175  176 1   
   178  175  177 1   
   179  175  178 1   
   180  181  182 1   
   181  181  183 1   
   182  184  185 1   
   183  184  186 1   
   184  187  188 1   
   185  187  189 1   
@<TRIPOS>SUBSTRUCTURE
     1 MOL         1 TEMP              0 ****  ****    0 ROOT
