@<TRIPOS>MOLECULE
MOL
  185   180     1     0     0
SMALL
resp


@<TRIPOS>ATOM
      1 C1         -5.8740    0.9760   -3.8470 c3        1 MOL     -0.431476
      2 C2         -6.5500    0.9490   -2.4520 c         1 MOL      0.532627
      3 O1         -5.9210    0.6390   -1.4550 o         1 MOL     -0.420780
      4 H1         -5.0420    1.6810   -3.8330 hc        1 MOL      0.115928
      5 H2         -5.5010   -0.0190   -4.0900 hc        1 MOL      0.115928
      6 H3         -6.6000    1.2870   -4.5980 hc        1 MOL      0.115928
      7 N1         -7.8310    1.1920   -2.3990 n         1 MOL     -0.572282
      8 C3         -8.6460    1.4740   -1.1750 c3        1 MOL      0.368118
      9 C4         -8.2280    0.5450   -0.0050 c         1 MOL      0.270750
     10 O2         -7.8430    1.0560    1.0410 o         1 MOL     -0.399185
     11 C5         -8.5130    2.9940   -0.7960 c3        1 MOL     -0.412038
     12 C6         -9.4420    3.4440    0.2780 c         1 MOL      0.736371
     13 O3        -10.4740    2.7590    0.5340 o         1 MOL     -0.658911
     14 O4         -9.1410    4.4300    0.9660 o         1 MOL     -0.658911
     15 H4         -8.3740    1.4400   -3.2130 hn        1 MOL      0.321904
     16 H5         -9.6730    1.2260   -1.4350 h1        1 MOL     -0.028877
     17 H6         -8.8800    3.4800   -1.7110 hc        1 MOL      0.101917
     18 H7         -7.5040    3.3280   -0.5590 hc        1 MOL      0.101917
     19 N2         -8.1810   -0.7650   -0.2490 n         1 MOL     -0.237256
     20 C7         -8.0310   -1.8710    0.7770 c3        1 MOL      0.024793
     21 C8         -6.5220   -2.2890    0.9690 c         1 MOL      0.595598
     22 O5         -6.2480   -3.3440    1.4880 o         1 MOL     -0.588623
     23 C9         -8.9810   -3.0300    0.4430 c3        1 MOL      0.042734
     24 C10       -10.4850   -2.6490    0.0700 c3        1 MOL      0.020139
     25 C11       -11.2890   -3.8080   -0.5880 c3        1 MOL     -0.083568
     26 C12       -10.7130   -4.0050   -2.0510 c3        1 MOL      0.070329
     27 N3        -11.4050   -5.1120   -2.8070 n4        1 MOL     -0.224219
     28 H8         -8.2890   -1.0770   -1.1980 hn        1 MOL      0.161589
     29 H9         -8.3360   -1.4350    1.7290 h1        1 MOL      0.094259
     30 H10        -8.9480   -3.7430    1.2630 hc        1 MOL      0.003227
     31 H11        -8.5310   -3.5960   -0.3750 hc        1 MOL      0.003227
     32 H12       -10.4560   -1.7420   -0.5280 hc        1 MOL      0.020806
     33 H13       -11.0000   -2.4130    1.0050 hc        1 MOL      0.020806
     34 H14       -12.3430   -3.5180   -0.6100 hc        1 MOL      0.052639
     35 H15       -11.2370   -4.7450   -0.0340 hc        1 MOL      0.052639
     36 H16        -9.6580   -4.2640   -1.9380 hx        1 MOL      0.050519
     37 H17       -10.8720   -3.1020   -2.6490 hx        1 MOL      0.050519
     38 H18       -11.1390   -5.0970   -3.7740 hn        1 MOL      0.241295
     39 H19       -11.2600   -6.0410   -2.4150 hn        1 MOL      0.241295
     40 H20       -12.4090   -5.0070   -2.8460 hn        1 MOL      0.241295
     41 N4         -5.5420   -1.4770    0.4980 n         1 MOL     -0.541663
     42 C13        -4.1400   -1.8420    0.5180 c3        1 MOL      0.083436
     43 C14        -3.6020   -1.9090    1.9450 c         1 MOL      0.674925
     44 O6         -3.7410   -0.9920    2.7730 o         1 MOL     -0.548540
     45 C15        -3.2850   -0.8660   -0.4170 c3        1 MOL     -0.173774
     46 C16        -1.8120   -1.1510   -0.5120 c         1 MOL      0.538148
     47 O7         -1.4000   -1.7170   -1.5590 o         1 MOL     -0.692490
     48 O8         -1.0040   -0.8940    0.3480 o         1 MOL     -0.692490
     49 H21        -5.9240   -0.6580    0.0610 hn        1 MOL      0.251444
     50 H22        -3.9850   -2.8280    0.0880 h1        1 MOL      0.035804
     51 H23        -3.5330    0.1610   -0.1720 hc        1 MOL      0.117625
     52 H24        -3.7460   -0.9310   -1.4000 hc        1 MOL      0.117625
     53 N5         -2.9020   -3.0230    2.1930 n         1 MOL     -0.388738
     54 C17        -2.3390   -3.4570    3.5050 c3        1 MOL      0.028057
     55 C18        -1.4650   -2.4980    4.4040 c         1 MOL      0.435812
     56 O9         -1.5510   -2.5460    5.5980 o         1 MOL     -0.534201
     57 H25        -2.8490   -3.7280    1.4740 hn        1 MOL      0.250907
     58 H26        -1.6940   -4.2990    3.2890 h1        1 MOL      0.049374
     59 H27        -3.1210   -3.9150    4.1230 h1        1 MOL      0.049374
     60 N6         -0.5590   -1.7390    3.8370 n         1 MOL     -0.180614
     61 C19         0.1270   -0.6340    4.5810 c3        1 MOL      0.086284
     62 C20        -0.3670    0.7420    4.1630 c         1 MOL      0.385538
     63 O10         0.2050    1.7140    4.6200 o         1 MOL     -0.513743
     64 C21         1.6920   -0.7390    4.3730 c3        1 MOL     -0.429864
     65 C22         2.2530   -0.4720    2.9780 c         1 MOL      0.619304
     66 N7          3.1830    0.4270    2.7900 n         1 MOL     -0.550569
     67 O11         1.7330   -1.0120    1.9980 o         1 MOL     -0.577300
     68 H28        -0.3630   -1.7570    2.8480 hn        1 MOL      0.146371
     69 H29        -0.1220   -0.7980    5.6210 h1        1 MOL      0.111721
     70 H30         1.9490   -1.7060    4.8200 hc        1 MOL      0.135662
     71 H31         2.1190    0.0870    4.9540 hc        1 MOL      0.135662
     72 H32         3.6770    0.8740    3.5430 hn        1 MOL      0.299432
     73 H33         3.6710    0.3530    1.9040 hn        1 MOL      0.299432
     74 N8         -1.3720    0.8540    3.2960 n         1 MOL     -0.127297
     75 C23        -1.7840    2.1270    2.7840 c3        1 MOL     -0.077068
     76 C24        -0.9590    2.7290    1.6270 c         1 MOL      0.411013
     77 O12        -0.3790    3.8570    1.7930 o         1 MOL     -0.579156
     78 H34        -2.0120    0.0730    3.1620 hn        1 MOL      0.149173
     79 H35        -1.9430    2.8010    3.6260 h1        1 MOL      0.096807
     80 H36        -2.8150    2.0090    2.4780 h1        1 MOL      0.096807
     81 N9         -0.9130    2.1150    0.4610 n         1 MOL     -0.093186
     82 C25        -0.1630    2.6750   -0.6660 c3        1 MOL      0.320423
     83 C26         1.1850    1.9940   -0.8020 c         1 MOL      0.410550
     84 O13         1.1910    0.7430   -0.7060 o         1 MOL     -0.469070
     85 C27        -1.0570    2.8050   -1.9150 c3        1 MOL     -0.064980
     86 C28        -2.2270    3.7720   -1.7760 ca        1 MOL     -0.072272
     87 C29        -2.2130    4.9430   -2.5430 ca        1 MOL     -0.078609
     88 C30        -3.3870    3.4730   -0.9860 ca        1 MOL     -0.078609
     89 C31        -3.2820    5.7780   -2.5610 ca        1 MOL     -0.277513
     90 C32        -4.4380    4.3870   -0.8660 ca        1 MOL     -0.277513
     91 C33        -4.3440    5.5900   -1.6560 ca        1 MOL      0.377181
     92 O14        -5.2680    6.5670   -1.5400 oh        1 MOL     -0.549553
     93 H37        -1.1530    1.1360    0.4400 hn        1 MOL     -0.000360
     94 H38         0.0110    3.7380   -0.5220 h1        1 MOL     -0.012248
     95 H39        -1.3220    1.7950   -2.2140 hc        1 MOL      0.030360
     96 H40        -0.4220    3.0730   -2.7690 hc        1 MOL      0.030360
     97 H41        -1.3270    5.1680   -3.1080 ha        1 MOL      0.093831
     98 H42        -3.4540    2.5150   -0.4880 ha        1 MOL      0.093831
     99 H43        -3.2100    6.7920   -2.9350 ha        1 MOL      0.149628
    100 H44        -5.3630    4.3020   -0.3160 ha        1 MOL      0.149628
    101 H45        -5.9130    6.3410   -0.8730 ho        1 MOL      0.429499
    102 N10         2.2540    2.7190   -1.0610 n         1 MOL     -0.721949
    103 C34         3.5790    2.1520   -1.4310 c3        1 MOL      0.455451
    104 C35         4.4910    2.1720   -0.2110 c         1 MOL      0.521660
    105 O15         4.8910    1.0930    0.2480 o         1 MOL     -0.523457
    106 C36         4.1320    2.8900   -2.6270 c3        1 MOL      0.032094
    107 C37         3.2180    3.1670   -3.8280 c3        1 MOL      0.031621
    108 C38         5.4080    2.0800   -3.0170 c3        1 MOL     -0.382123
    109 C39         2.6360    1.9290   -4.5440 c3        1 MOL     -0.223289
    110 H46         2.0710    3.7040   -1.1950 hn        1 MOL      0.339856
    111 H47         3.4420    1.1060   -1.7340 h1        1 MOL     -0.084360
    112 H48         4.4500    3.8570   -2.2500 hc        1 MOL     -0.047556
    113 H49         3.6950    3.7190   -4.6380 hc        1 MOL      0.014255
    114 H50         2.4280    3.8190   -3.4480 hc        1 MOL      0.014255
    115 H51         6.2040    2.4230   -2.3600 hc        1 MOL      0.107270
    116 H52         5.3980    0.9900   -2.9420 hc        1 MOL      0.107270
    117 H53         5.6560    2.3240   -4.0480 hc        1 MOL      0.107270
    118 H54         1.7870    1.5140   -3.9960 hc        1 MOL      0.074361
    119 H55         2.3240    2.1460   -5.5660 hc        1 MOL      0.074361
    120 H56         3.4250    1.1700   -4.5180 hc        1 MOL      0.074361
    121 N11         4.8430    3.3470    0.3840 n         1 MOL     -0.392454
    122 C40         5.4450    3.3920    1.7330 c3        1 MOL     -0.105118
    123 C41         6.8430    2.7280    1.7460 c         1 MOL      0.539202
    124 O16         7.0870    1.9350    2.6260 o         1 MOL     -0.513824
    125 C42         5.5100    4.8660    2.1710 c3        1 MOL      0.032356
    126 O17         6.1440    5.6390    1.1450 oh        1 MOL     -0.622153
    127 H57         4.4110    4.2060    0.0780 hn        1 MOL      0.321209
    128 H58         4.7810    2.8060    2.3790 h1        1 MOL      0.124752
    129 H59         5.8630    5.0120    3.1950 h1        1 MOL      0.095412
    130 H60         4.4930    5.2570    2.1440 h1        1 MOL      0.095412
    131 H61         6.3450    6.5180    1.4860 ho        1 MOL      0.431980
    132 N12         7.6760    2.9090    0.7340 n         1 MOL     -0.336687
    133 C43         8.9520    2.2390    0.5590 c3        1 MOL      0.211471
    134 C44         8.9030    0.6540    0.7770 c         1 MOL      0.464393
    135 O18         9.9020    0.0820    1.1920 o         1 MOL     -0.514490
    136 C45        10.0960    2.9630    1.3640 c3        1 MOL     -0.272181
    137 H62         7.4100    3.6590    0.1050 hn        1 MOL      0.237052
    138 H63         9.2710    2.3000   -0.4820 h1        1 MOL      0.038478
    139 H64        10.2880    3.9440    0.9110 hc        1 MOL      0.077765
    140 H65         9.9770    3.1470    2.4290 hc        1 MOL      0.077765
    141 H66        10.9870    2.3650    1.1960 hc        1 MOL      0.077765
    142 N13         7.7390    0.0370    0.4930 n         1 MOL     -0.453052
    143 C46         7.4710   -1.4460    0.6100 c3        1 MOL      0.576343
    144 C47         6.9910   -2.1010   -0.6990 c         1 MOL      0.127868
    145 O19         6.5530   -1.4500   -1.6390 o         1 MOL     -0.396648
    146 C48         6.7410   -1.7410    1.9520 c3        1 MOL     -0.292973
    147 H67         7.0190    0.6300    0.1170 hn        1 MOL      0.117372
    148 H68         8.4500   -1.9030    0.7660 h1        1 MOL     -0.060492
    149 H69         6.6350   -2.8070    2.1200 hc        1 MOL      0.078302
    150 H70         7.2810   -1.2390    2.7430 hc        1 MOL      0.078302
    151 H71         5.7270   -1.3360    1.9040 hc        1 MOL      0.078302
    152 N14         7.2550   -3.3900   -0.8230 n         1 MOL     -0.362988
    153 C49         6.7390   -4.2250   -1.8960 c3        1 MOL      0.061574
    154 C50         7.1670   -3.7380   -3.2230 c         1 MOL      0.351685
    155 O20         6.4500   -3.6910   -4.2490 o         1 MOL     -0.495594
    156 C51         5.2470   -4.4560   -1.7850 c3        1 MOL      0.212495
    157 C52         4.8820   -5.1230   -0.4480 c3        1 MOL     -0.292308
    158 C53         3.4380   -4.8000   -0.0530 c         1 MOL      0.813958
    159 O21         2.5500   -5.6490   -0.3950 o         1 MOL     -0.766192
    160 O22         3.0370   -3.7240    0.3730 o         1 MOL     -0.766192
    161 H72         7.6750   -3.8470   -0.0210 hn        1 MOL      0.277558
    162 H73         7.3010   -5.1480   -1.7800 h1        1 MOL      0.047985
    163 H74         4.8490   -5.0690   -2.5880 hc        1 MOL     -0.014849
    164 H75         4.7750   -3.4730   -1.8760 hc        1 MOL     -0.014849
    165 H76         5.4240   -4.6890    0.3860 hc        1 MOL      0.041968
    166 H77         5.0670   -6.1960   -0.5240 hc        1 MOL      0.041968
    167 N15         8.4470   -3.3370   -3.2810 n         1 MOL     -0.177961
    168 C54         9.0400   -2.5720   -4.3970 c3        1 MOL     -0.236992
    169 H78         9.8610   -1.9610   -4.0230 h1        1 MOL      0.107014
    170 H79         9.4180   -3.2630   -5.1510 h1        1 MOL      0.107014
    171 H80         8.2820   -1.9280   -4.8420 h1        1 MOL      0.107014
    172 H81         9.0950   -3.7640   -2.6410 hn        1 MOL      0.212747
    173 Ca1         1.1590   -1.8650   -0.4240 Ca        1 MOL      1.793204
    174 O23        -0.1310   -3.7110    1.2770 oh        1 MOL     -0.821044
    175 H82        -0.7670   -4.4030    1.1000 ho        1 MOL      0.397570
    176 H83         0.4230   -4.0760    1.9610 ho        1 MOL      0.397570
    177 O24         0.8590   -4.0400   -1.8930 oh        1 MOL     -0.821044
    178 H84         0.3150   -4.4840   -2.5400 ho        1 MOL      0.397570
    179 H85         1.2170   -4.7470   -1.3520 ho        1 MOL      0.397570
    180 O25         3.8010   -1.1990   -0.4680 oh        1 MOL     -0.821044
    181 H86         4.4540   -1.6230   -1.0290 ho        1 MOL      0.397570
    182 H87         4.1980   -0.3660   -0.2270 ho        1 MOL      0.397570
    183 O26         1.6130   -1.3280   -3.0360 oh        1 MOL     -0.821044
    184 H88         1.4080   -0.7820   -3.7860 ho        1 MOL      0.397570
    185 H89         2.4640   -1.7060   -3.2320 ho        1 MOL      0.397570
@<TRIPOS>BOND
     1    1    2 1   
     2    1    4 1   
     3    1    5 1   
     4    1    6 1   
     5    2    3 2   
     6    2    7 1   
     7    7    8 1   
     8    7   15 1   
     9    8    9 1   
    10    8   11 1   
    11    8   16 1   
    12    9   10 2   
    13    9   19 1   
    14   11   12 1   
    15   11   17 1   
    16   11   18 1   
    17   12   13 1   
    18   12   14 1   
    19   19   20 1   
    20   19   28 1   
    21   20   21 1   
    22   20   23 1   
    23   20   29 1   
    24   21   22 2   
    25   21   41 1   
    26   23   24 1   
    27   23   30 1   
    28   23   31 1   
    29   24   25 1   
    30   24   32 1   
    31   24   33 1   
    32   25   26 1   
    33   25   34 1   
    34   25   35 1   
    35   26   27 1   
    36   26   36 1   
    37   26   37 1   
    38   27   38 1   
    39   27   39 1   
    40   27   40 1   
    41   41   42 1   
    42   41   49 1   
    43   42   43 1   
    44   42   45 1   
    45   42   50 1   
    46   43   44 2   
    47   43   53 1   
    48   45   46 1   
    49   45   51 1   
    50   45   52 1   
    51   46   47 1   
    52   46   48 1   
    53   53   54 1   
    54   53   57 1   
    55   54   55 1   
    56   54   58 1   
    57   54   59 1   
    58   55   56 2   
    59   55   60 1   
    60   60   61 1   
    61   60   68 1   
    62   61   62 1   
    63   61   64 1   
    64   61   69 1   
    65   62   63 2   
    66   62   74 1   
    67   64   65 1   
    68   64   70 1   
    69   64   71 1   
    70   65   66 1   
    71   65   67 2   
    72   66   72 1   
    73   66   73 1   
    74   74   75 1   
    75   74   78 1   
    76   75   76 1   
    77   75   79 1   
    78   75   80 1   
    79   76   77 2   
    80   76   81 1   
    81   81   82 1   
    82   81   93 1   
    83   82   83 1   
    84   82   85 1   
    85   82   94 1   
    86   83   84 2   
    87   83  102 1   
    88   85   86 1   
    89   85   95 1   
    90   85   96 1   
    91   86   87 ar  
    92   86   88 ar  
    93   87   89 ar  
    94   87   97 1   
    95   88   90 ar  
    96   88   98 1   
    97   89   91 ar  
    98   89   99 1   
    99   90   91 ar  
   100   90  100 1   
   101   91   92 1   
   102   92  101 1   
   103  102  103 1   
   104  102  110 1   
   105  103  104 1   
   106  103  106 1   
   107  103  111 1   
   108  104  105 2   
   109  104  121 1   
   110  106  107 1   
   111  106  108 1   
   112  106  112 1   
   113  107  109 1   
   114  107  113 1   
   115  107  114 1   
   116  108  115 1   
   117  108  116 1   
   118  108  117 1   
   119  109  118 1   
   120  109  119 1   
   121  109  120 1   
   122  121  122 1   
   123  121  127 1   
   124  122  123 1   
   125  122  125 1   
   126  122  128 1   
   127  123  124 2   
   128  123  132 1   
   129  125  126 1   
   130  125  129 1   
   131  125  130 1   
   132  126  131 1   
   133  132  133 1   
   134  132  137 1   
   135  133  134 1   
   136  133  136 1   
   137  133  138 1   
   138  134  135 2   
   139  134  142 1   
   140  136  139 1   
   141  136  140 1   
   142  136  141 1   
   143  142  143 1   
   144  142  147 1   
   145  143  144 1   
   146  143  146 1   
   147  143  148 1   
   148  144  145 2   
   149  144  152 1   
   150  146  149 1   
   151  146  150 1   
   152  146  151 1   
   153  152  153 1   
   154  152  161 1   
   155  153  154 1   
   156  153  156 1   
   157  153  162 1   
   158  154  155 2   
   159  154  167 1   
   160  156  157 1   
   161  156  163 1   
   162  156  164 1   
   163  157  158 1   
   164  157  165 1   
   165  157  166 1   
   166  158  159 1   
   167  158  160 1   
   168  167  168 1   
   169  167  172 1   
   170  168  169 1   
   171  168  170 1   
   172  168  171 1   
   173  174  175 1   
   174  174  176 1   
   175  177  178 1   
   176  177  179 1   
   177  180  181 1   
   178  180  182 1   
   179  183  184 1   
   180  183  185 1   
@<TRIPOS>SUBSTRUCTURE
     1 MOL         1 TEMP              0 ****  ****    0 ROOT
