@<TRIPOS>MOLECULE
MOL
  185   180     1     0     0
SMALL
resp


@<TRIPOS>ATOM
      1 C1         -2.4060   -2.7060    5.9530 c3        1 MOL     -0.306548
      2 C2         -2.0350   -2.5060    4.4820 c         1 MOL      0.731494
      3 O1         -2.8110   -2.8560    3.5950 o         1 MOL     -0.579666
      4 H1         -1.4990   -2.8550    6.5390 hc        1 MOL      0.079027
      5 H2         -2.9330   -1.8240    6.3180 hc        1 MOL      0.079027
      6 H3         -3.0480   -3.5800    6.0510 hc        1 MOL      0.079027
      7 N1         -0.8110   -2.0140    4.2800 n         1 MOL     -0.613946
      8 C3         -0.1030   -2.0810    3.0040 c3        1 MOL      0.107053
      9 C4         -0.1470   -3.5020    2.2270 c         1 MOL      0.709182
     10 O2          0.3190   -4.4640    2.7670 o         1 MOL     -0.542416
     11 C5          1.3670   -1.7340    3.4150 c3        1 MOL      0.032086
     12 C6          2.1800   -1.4240    2.1460 c         1 MOL      0.507995
     13 O3          3.0920   -0.5380    2.0840 o         1 MOL     -0.695593
     14 O4          1.9920   -1.9790    1.0710 o         1 MOL     -0.695593
     15 H4         -0.3460   -1.4990    5.0130 hn        1 MOL      0.312223
     16 H5         -0.4520   -1.2930    2.3440 h1        1 MOL     -0.030370
     17 H6          1.6570   -2.5900    4.0340 hc        1 MOL      0.007552
     18 H7          1.3460   -0.8540    4.0560 hc        1 MOL      0.007552
     19 N2         -0.6810   -3.4640    0.9540 n         1 MOL     -0.499275
     20 C7         -0.7670   -4.5980    0.0300 c3        1 MOL     -0.041412
     21 C8          0.5880   -5.2260   -0.3980 c         1 MOL      0.540878
     22 O5          0.5430   -6.3800   -0.7770 o         1 MOL     -0.581975
     23 C9         -1.5730   -3.9910   -1.0750 c3        1 MOL     -0.200107
     24 C10        -1.7900   -4.9780   -2.2280 c3        1 MOL      0.033239
     25 C11        -2.4870   -4.3600   -3.4590 c3        1 MOL     -0.043071
     26 C12        -2.4970   -5.2970   -4.6880 c3        1 MOL      0.062343
     27 N3         -3.6020   -6.2390   -4.6800 n4        1 MOL     -0.466230
     28 H8         -0.9100   -2.5890    0.5070 hn        1 MOL      0.268550
     29 H9         -1.4020   -5.3600    0.4820 h1        1 MOL      0.122687
     30 H10        -1.0130   -3.1840   -1.5610 hc        1 MOL      0.101878
     31 H11        -2.4810   -3.5740   -0.6520 hc        1 MOL      0.101878
     32 H12        -2.3060   -5.8880   -1.9090 hc        1 MOL      0.018511
     33 H13        -0.8430   -5.4240   -2.5200 hc        1 MOL      0.018511
     34 H14        -1.8890   -3.5200   -3.8310 hc        1 MOL      0.020722
     35 H15        -3.4800   -3.9660   -3.2380 hc        1 MOL      0.020722
     36 H16        -1.5020   -5.6840   -4.8910 hx        1 MOL      0.085461
     37 H17        -2.6700   -4.6830   -5.5740 hx        1 MOL      0.085461
     38 H18        -3.7500   -6.4690   -5.6520 hn        1 MOL      0.355649
     39 H19        -3.3630   -7.0960   -4.2090 hn        1 MOL      0.355649
     40 H20        -4.4200   -5.8730   -4.2000 hn        1 MOL      0.355649
     41 N4          1.7550   -4.5630   -0.2860 n         1 MOL     -0.270719
     42 C13         3.0680   -5.1420   -0.5450 c3        1 MOL     -0.098518
     43 C14         4.3160   -4.6780    0.2870 c         1 MOL      0.415838
     44 O6          5.4290   -5.1940    0.1630 o         1 MOL     -0.506365
     45 C15         3.4700   -4.8890   -2.0650 c3        1 MOL     -0.139664
     46 C16         3.5340   -3.4200   -2.4900 c         1 MOL      0.726717
     47 O7          2.9700   -2.5930   -1.7920 o         1 MOL     -0.721296
     48 O8          4.1120   -3.0840   -3.5590 o         1 MOL     -0.721296
     49 H21         1.6830   -3.6130    0.0540 hn        1 MOL      0.222455
     50 H22         3.0020   -6.2260   -0.5240 h1        1 MOL      0.144252
     51 H23         2.7150   -5.3840   -2.6690 hc        1 MOL      0.063983
     52 H24         4.4070   -5.4280   -2.2370 hc        1 MOL      0.063983
     53 N5          4.1900   -3.7290    1.2270 n         1 MOL     -0.169854
     54 C17         5.1330   -3.2630    2.2100 c3        1 MOL     -0.167714
     55 C18         5.9890   -2.1170    1.6510 c         1 MOL      0.518505
     56 O9          6.9260   -1.6770    2.3050 o         1 MOL     -0.564173
     57 H25         3.3310   -3.1880    1.2480 hn        1 MOL      0.128599
     58 H26         5.7550   -4.0790    2.5690 h1        1 MOL      0.119116
     59 H27         4.5600   -3.0160    3.1050 h1        1 MOL      0.119116
     60 N6          5.6900   -1.6240    0.3920 n         1 MOL     -0.063064
     61 C19         6.6170   -0.7250   -0.3380 c3        1 MOL     -0.055747
     62 C20         5.9180    0.5630   -0.7030 c         1 MOL      0.518478
     63 O10         4.6940    0.6460   -0.5720 o         1 MOL     -0.507309
     64 C21         7.2120   -1.4920   -1.5290 c3        1 MOL     -0.278137
     65 C22         7.8950   -2.7990   -1.1760 c         1 MOL      0.690689
     66 N7          8.9050   -2.8240   -0.3310 n         1 MOL     -0.857582
     67 O11         7.4820   -3.8420   -1.7220 o         1 MOL     -0.524515
     68 H28         4.9030   -2.0110   -0.1030 hn        1 MOL      0.144055
     69 H29         7.4280   -0.4000    0.3140 h1        1 MOL      0.039188
     70 H30         7.9730   -0.8280   -1.9490 hc        1 MOL      0.065663
     71 H31         6.4440   -1.6360   -2.2890 hc        1 MOL      0.065663
     72 H32         9.0040   -1.9630    0.1860 hn        1 MOL      0.400579
     73 H33         9.3140   -3.7180   -0.0810 hn        1 MOL      0.400579
     74 N8          6.6120    1.6140   -1.1580 n         1 MOL     -0.348894
     75 C23         6.0850    2.8810   -1.7070 c3        1 MOL     -0.195378
     76 C24         5.1620    3.5820   -0.6850 c         1 MOL      0.710246
     77 O12         5.5870    4.0280    0.3820 o         1 MOL     -0.545303
     78 H34         7.6080    1.4900   -1.0610 hn        1 MOL      0.299411
     79 H35         5.5470    2.5500   -2.5940 h1        1 MOL      0.103319
     80 H36         6.8370    3.5270   -2.1520 h1        1 MOL      0.103319
     81 N9          3.9110    3.7200   -1.0380 n         1 MOL     -0.850812
     82 C25         2.8530    4.3620   -0.2720 c3        1 MOL      0.789106
     83 C26         2.0020    3.3700    0.5910 c         1 MOL      0.136749
     84 O13         2.1680    2.1110    0.5130 o         1 MOL     -0.355796
     85 C27         1.9860    5.1500   -1.2980 c3        1 MOL     -0.347741
     86 C28         2.5560    6.3460   -1.9710 ca        1 MOL      0.180909
     87 C29         3.2020    7.3050   -1.1570 ca        1 MOL     -0.258796
     88 C30         2.4970    6.4890   -3.3730 ca        1 MOL     -0.258796
     89 C31         3.7360    8.4720   -1.7810 ca        1 MOL     -0.163771
     90 C32         3.1050    7.6030   -3.9800 ca        1 MOL     -0.163771
     91 C33         3.8030    8.5350   -3.1810 ca        1 MOL      0.229673
     92 O14         4.3550    9.5880   -3.7780 oh        1 MOL     -0.417953
     93 H37         3.5920    3.2930   -1.8920 hn        1 MOL      0.365306
     94 H38         3.2950    5.0690    0.4330 h1        1 MOL     -0.009938
     95 H39         1.0870    5.4620   -0.7630 hc        1 MOL      0.050924
     96 H40         1.6570    4.4700   -2.0930 hc        1 MOL      0.050924
     97 H41         3.2230    7.1760   -0.0890 ha        1 MOL      0.145240
     98 H42         1.8970    5.8660   -4.0230 ha        1 MOL      0.145240
     99 H43         4.1270    9.3590   -1.3060 ha        1 MOL      0.144999
    100 H44         3.0550    7.6760   -5.0540 ha        1 MOL      0.144999
    101 H45         4.4270    9.3980   -4.7240 ho        1 MOL      0.339119
    102 N10         1.1430    3.9720    1.4430 n         1 MOL     -0.474789
    103 C34         0.6470    3.4300    2.7060 c3        1 MOL      0.356131
    104 C35        -0.2500    2.2220    2.4930 c         1 MOL      0.057577
    105 O15         0.1930    1.1450    2.0290 o         1 MOL     -0.330869
    106 C36         1.7420    3.2060    3.6760 c3        1 MOL      0.276490
    107 C37         1.0910    3.0230    5.0470 c3        1 MOL     -0.028412
    108 C38         2.8800    4.2980    3.6960 c3        1 MOL     -0.279914
    109 C39         2.0590    2.5300    6.1720 c3        1 MOL     -0.279705
    110 H46         1.0150    4.9430    1.2060 hn        1 MOL      0.261417
    111 H47         0.0130    4.2100    3.1360 h1        1 MOL     -0.058037
    112 H48         2.2610    2.3110    3.3320 hc        1 MOL      0.031533
    113 H49         0.2020    2.3970    5.0000 hc        1 MOL     -0.001529
    114 H50         0.7890    3.9860    5.4590 hc        1 MOL     -0.001529
    115 H51         3.1820    4.5110    2.6670 hc        1 MOL      0.061807
    116 H52         2.3920    5.2070    4.0750 hc        1 MOL      0.061807
    117 H53         3.7820    4.0120    4.2400 hc        1 MOL      0.061807
    118 H54         3.1030    2.7430    5.9590 hc        1 MOL      0.086206
    119 H55         1.6540    2.7810    7.1580 hc        1 MOL      0.086206
    120 H56         2.1330    1.4480    6.2770 hc        1 MOL      0.086206
    121 N11        -1.5010    2.2560    2.8690 n         1 MOL     -0.266567
    122 C40        -2.4260    1.0840    2.9840 c3        1 MOL     -0.075420
    123 C41        -3.3460    0.7270    1.8180 c         1 MOL      0.391950
    124 O16        -4.0240   -0.3470    1.8190 o         1 MOL     -0.472907
    125 C42        -3.3530    1.1270    4.2040 c3        1 MOL      0.111065
    126 O17        -2.6640    1.5190    5.3890 oh        1 MOL     -0.555991
    127 H57        -1.9440    3.1410    3.0670 hn        1 MOL      0.276795
    128 H58        -1.8080    0.2250    3.2310 h1        1 MOL      0.198282
    129 H59        -3.8470    0.1890    4.4670 h1        1 MOL      0.085222
    130 H60        -4.1170    1.8710    4.0030 h1        1 MOL      0.085222
    131 H61        -2.0770    2.2720    5.2660 ho        1 MOL      0.324752
    132 N12        -3.4040    1.6110    0.8090 n         1 MOL     -0.328214
    133 C43        -4.2350    1.4260   -0.3770 c3        1 MOL     -0.108019
    134 C44        -3.6480    0.4190   -1.3610 c         1 MOL      0.657758
    135 O18        -2.4530    0.3950   -1.6040 o         1 MOL     -0.538169
    136 C45        -4.4460    2.8020   -0.9860 c3        1 MOL     -0.397976
    137 H62        -3.0450    2.5510    0.9670 hn        1 MOL      0.270255
    138 H63        -5.2100    1.0680   -0.0400 h1        1 MOL      0.173030
    139 H64        -4.9620    3.5160   -0.3400 hc        1 MOL      0.128303
    140 H65        -3.4510    3.2050   -1.1690 hc        1 MOL      0.128303
    141 H66        -4.9470    2.7300   -1.9490 hc        1 MOL      0.128303
    142 N13        -4.4290   -0.5170   -1.9620 n         1 MOL     -0.575176
    143 C46        -5.8420   -0.8170   -1.6830 c3        1 MOL      0.019488
    144 C47        -6.8460    0.3140   -2.2220 c         1 MOL      0.795466
    145 O19        -6.7430    0.7260   -3.3970 o         1 MOL     -0.586662
    146 C48        -6.2760   -2.2270   -2.0290 c3        1 MOL     -0.089416
    147 H67        -3.9950   -1.0010   -2.7350 hn        1 MOL      0.298392
    148 H68        -5.8300   -0.8480   -0.5910 h1        1 MOL      0.140315
    149 H69        -5.5200   -2.9850   -1.8090 hc        1 MOL      0.037242
    150 H70        -7.2330   -2.5330   -1.5950 hc        1 MOL      0.037242
    151 H71        -6.4600   -2.3450   -3.1020 hc        1 MOL      0.037242
    152 N14        -7.8410    0.7920   -1.4100 n         1 MOL     -0.752934
    153 C49        -8.2130    0.3270   -0.0950 c3        1 MOL      0.002242
    154 C50        -8.5460    1.5230    0.8550 c         1 MOL      0.480279
    155 O20        -8.4340    1.4150    2.1030 o         1 MOL     -0.553162
    156 C51        -9.3390   -0.7880   -0.1280 c3        1 MOL      0.214267
    157 C52       -10.7610   -0.2680   -0.6140 c3        1 MOL     -0.096927
    158 C53       -10.8180    0.5430   -1.9860 c         1 MOL      0.647636
    159 O21       -11.0980   -0.1860   -2.9630 o         1 MOL     -0.666122
    160 O22       -10.6300    1.7930   -2.0500 o         1 MOL     -0.666122
    161 H72        -8.5060    1.3910   -1.8760 hn        1 MOL      0.340791
    162 H73        -7.4100   -0.2150    0.4190 h1        1 MOL     -0.002874
    163 H74        -9.5180   -1.0530    0.9120 hc        1 MOL     -0.031862
    164 H75        -8.9930   -1.6730   -0.6690 hc        1 MOL     -0.031862
    165 H76       -11.2690    0.3360    0.1350 hc        1 MOL     -0.003352
    166 H77       -11.3020   -1.2150   -0.6840 hc        1 MOL     -0.003352
    167 N15        -9.0870    2.6000    0.2820 n         1 MOL     -0.291141
    168 C54        -9.7050    3.7120    1.0120 c3        1 MOL     -0.001052
    169 H78       -10.6840    3.9260    0.5860 h1        1 MOL      0.043384
    170 H79        -9.8170    3.4400    2.0620 h1        1 MOL      0.043384
    171 H80        -9.0730    4.5960    0.9310 h1        1 MOL      0.043384
    172 H81        -9.2890    2.5390   -0.7050 hn        1 MOL      0.244699
    173 Ca1         2.2030   -0.2800   -0.9540 Ca        1 MOL      1.766253
    174 O23         3.6580   -0.2900   -3.0250 oh        1 MOL     -0.865004
    175 H82         4.0960    0.1150   -3.7800 ho        1 MOL      0.413013
    176 H83         3.7930   -1.2300   -3.1450 ho        1 MOL      0.413013
    177 O24        -0.3390   -0.2560   -0.1890 oh        1 MOL     -0.865004
    178 H84        -0.4520    0.4150    0.4900 ho        1 MOL      0.413013
    179 H85        -1.0830   -0.1210   -0.7790 ho        1 MOL      0.413013
    180 O25         1.7990    1.8300   -2.3800 oh        1 MOL     -0.865004
    181 H86         0.8630    1.9460   -2.5350 ho        1 MOL      0.413013
    182 H87         2.2220    2.2860   -3.1130 ho        1 MOL      0.413013
    183 O26         0.4930   -1.2240   -2.9330 oh        1 MOL     -0.865004
    184 H88        -0.1670   -1.0590   -3.6120 ho        1 MOL      0.413013
    185 H89         0.9860   -1.9790   -3.2490 ho        1 MOL      0.413013
@<TRIPOS>BOND
     1    1    2 1   
     2    1    4 1   
     3    1    5 1   
     4    1    6 1   
     5    2    3 2   
     6    2    7 1   
     7    7    8 1   
     8    7   15 1   
     9    8    9 1   
    10    8   11 1   
    11    8   16 1   
    12    9   10 2   
    13    9   19 1   
    14   11   12 1   
    15   11   17 1   
    16   11   18 1   
    17   12   13 1   
    18   12   14 1   
    19   19   20 1   
    20   19   28 1   
    21   20   21 1   
    22   20   23 1   
    23   20   29 1   
    24   21   22 2   
    25   21   41 1   
    26   23   24 1   
    27   23   30 1   
    28   23   31 1   
    29   24   25 1   
    30   24   32 1   
    31   24   33 1   
    32   25   26 1   
    33   25   34 1   
    34   25   35 1   
    35   26   27 1   
    36   26   36 1   
    37   26   37 1   
    38   27   38 1   
    39   27   39 1   
    40   27   40 1   
    41   41   42 1   
    42   41   49 1   
    43   42   43 1   
    44   42   45 1   
    45   42   50 1   
    46   43   44 2   
    47   43   53 1   
    48   45   46 1   
    49   45   51 1   
    50   45   52 1   
    51   46   47 1   
    52   46   48 1   
    53   53   54 1   
    54   53   57 1   
    55   54   55 1   
    56   54   58 1   
    57   54   59 1   
    58   55   56 2   
    59   55   60 1   
    60   60   61 1   
    61   60   68 1   
    62   61   62 1   
    63   61   64 1   
    64   61   69 1   
    65   62   63 2   
    66   62   74 1   
    67   64   65 1   
    68   64   70 1   
    69   64   71 1   
    70   65   66 1   
    71   65   67 2   
    72   66   72 1   
    73   66   73 1   
    74   74   75 1   
    75   74   78 1   
    76   75   76 1   
    77   75   79 1   
    78   75   80 1   
    79   76   77 2   
    80   76   81 1   
    81   81   82 1   
    82   81   93 1   
    83   82   83 1   
    84   82   85 1   
    85   82   94 1   
    86   83   84 2   
    87   83  102 1   
    88   85   86 1   
    89   85   95 1   
    90   85   96 1   
    91   86   87 ar  
    92   86   88 ar  
    93   87   89 ar  
    94   87   97 1   
    95   88   90 ar  
    96   88   98 1   
    97   89   91 ar  
    98   89   99 1   
    99   90   91 ar  
   100   90  100 1   
   101   91   92 1   
   102   92  101 1   
   103  102  103 1   
   104  102  110 1   
   105  103  104 1   
   106  103  106 1   
   107  103  111 1   
   108  104  105 2   
   109  104  121 1   
   110  106  107 1   
   111  106  108 1   
   112  106  112 1   
   113  107  109 1   
   114  107  113 1   
   115  107  114 1   
   116  108  115 1   
   117  108  116 1   
   118  108  117 1   
   119  109  118 1   
   120  109  119 1   
   121  109  120 1   
   122  121  122 1   
   123  121  127 1   
   124  122  123 1   
   125  122  125 1   
   126  122  128 1   
   127  123  124 2   
   128  123  132 1   
   129  125  126 1   
   130  125  129 1   
   131  125  130 1   
   132  126  131 1   
   133  132  133 1   
   134  132  137 1   
   135  133  134 1   
   136  133  136 1   
   137  133  138 1   
   138  134  135 2   
   139  134  142 1   
   140  136  139 1   
   141  136  140 1   
   142  136  141 1   
   143  142  143 1   
   144  142  147 1   
   145  143  144 1   
   146  143  146 1   
   147  143  148 1   
   148  144  145 2   
   149  144  152 1   
   150  146  149 1   
   151  146  150 1   
   152  146  151 1   
   153  152  153 1   
   154  152  161 1   
   155  153  154 1   
   156  153  156 1   
   157  153  162 1   
   158  154  155 2   
   159  154  167 1   
   160  156  157 1   
   161  156  163 1   
   162  156  164 1   
   163  157  158 1   
   164  157  165 1   
   165  157  166 1   
   166  158  159 1   
   167  158  160 1   
   168  167  168 1   
   169  167  172 1   
   170  168  169 1   
   171  168  170 1   
   172  168  171 1   
   173  174  175 1   
   174  174  176 1   
   175  177  178 1   
   176  177  179 1   
   177  180  181 1   
   178  180  182 1   
   179  183  184 1   
   180  183  185 1   
@<TRIPOS>SUBSTRUCTURE
     1 MOL         1 TEMP              0 ****  ****    0 ROOT
