@<TRIPOS>MOLECULE
MOL
  182   178     1     0     0
SMALL
resp


@<TRIPOS>ATOM
      1 C1          0.1690   -3.6810    6.3670 c3        1 MOL     -0.357218
      2 C2          0.3130   -3.4450    4.8580 c         1 MOL      0.790213
      3 O1         -0.6060   -3.4740    4.0570 o         1 MOL     -0.601987
      4 H1          0.3970   -2.7590    6.9020 hc        1 MOL      0.104673
      5 H2         -0.8530   -3.9870    6.5920 hc        1 MOL      0.104673
      6 H3          0.8610   -4.4630    6.6800 hc        1 MOL      0.104673
      7 N1          1.5410   -3.0280    4.4320 n         1 MOL     -0.718503
      8 C3          1.9520   -2.8300    3.0460 c3        1 MOL      0.136530
      9 C4          1.9350   -4.1510    2.2560 c         1 MOL      0.535320
     10 O2          2.2310   -5.2850    2.7330 o         1 MOL     -0.566181
     11 C5          3.2950   -2.0860    2.9950 c3        1 MOL      0.008084
     12 C6          3.5230   -1.3340    1.6980 c         1 MOL      0.389939
     13 O3          4.2740   -0.3900    1.6740 o         1 MOL     -0.612282
     14 O4          2.9370   -1.7520    0.6880 o         1 MOL     -0.612282
     15 H4          2.2740   -2.8180    5.1000 hn        1 MOL      0.331361
     16 H5          1.2400   -2.1730    2.5480 h1        1 MOL      0.073822
     17 H6          4.0660   -2.8360    3.1710 hc        1 MOL      0.040853
     18 H7          3.3110   -1.4150    3.8520 hc        1 MOL      0.040853
     19 N2          1.5830   -4.0260    0.9930 n         1 MOL     -0.237321
     20 C7          1.5410   -5.1680    0.0430 c3        1 MOL     -0.056069
     21 C8          2.6780   -5.2100   -0.9970 c         1 MOL      0.490663
     22 O5          2.9520   -6.2490   -1.6400 o         1 MOL     -0.575858
     23 C9          0.1800   -5.1960   -0.6790 c3        1 MOL     -0.070781
     24 C10        -0.0610   -6.4440   -1.6000 c3        1 MOL     -0.005177
     25 C11        -1.5080   -6.3120   -2.0690 c3        1 MOL      0.041247
     26 C12        -2.0010   -7.5000   -2.9850 c3        1 MOL     -0.019213
     27 N3         -3.4750   -7.4930   -3.1390 n4        1 MOL     -0.141463
     28 H8          1.4720   -3.0630    0.7050 hn        1 MOL      0.095357
     29 H9          1.6830   -6.1270    0.5420 h1        1 MOL      0.112789
     30 H10        -0.0180   -4.2520   -1.1650 hc        1 MOL      0.040130
     31 H11        -0.5790   -5.2380    0.1080 hc        1 MOL      0.040130
     32 H12         0.0110   -7.4310   -1.1580 hc        1 MOL      0.031119
     33 H13         0.6210   -6.3580   -2.4390 hc        1 MOL      0.031119
     34 H14        -1.6420   -5.3570   -2.5900 hc        1 MOL      0.012250
     35 H15        -2.1240   -6.1890   -1.1730 hc        1 MOL      0.012250
     36 H16        -1.7990   -8.4520   -2.4960 hx        1 MOL      0.078077
     37 H17        -1.4950   -7.4960   -3.9510 hx        1 MOL      0.078077
     38 H18        -3.8510   -8.1360   -3.8190 hn        1 MOL      0.223300
     39 H19        -3.8710   -7.9290   -2.3090 hn        1 MOL      0.223300
     40 H20        -3.9150   -6.5870   -3.2630 hn        1 MOL      0.223300
     41 N4          3.3470   -4.0940   -1.2370 n         1 MOL     -0.129484
     42 C13         4.6140   -4.0840   -1.9060 c3        1 MOL      0.096026
     43 C14         5.8620   -3.7340   -1.0420 c         1 MOL      0.324947
     44 O6          6.9560   -4.1460   -1.4610 o         1 MOL     -0.480369
     45 C15         4.5750   -3.1500   -3.1200 c3        1 MOL     -0.369471
     46 C16         4.0730   -1.7980   -2.7110 c         1 MOL      0.955932
     47 O7          2.9000   -1.4860   -2.8590 o         1 MOL     -0.858554
     48 O8          4.7450   -0.9390   -2.0860 o         1 MOL     -0.858554
     49 H21         3.1310   -3.2370   -0.7370 hn        1 MOL     -0.007387
     50 H22         4.8340   -5.0670   -2.3260 h1        1 MOL      0.108075
     51 H23         3.9330   -3.6170   -3.8580 hc        1 MOL      0.112874
     52 H24         5.5850   -3.1820   -3.5400 hc        1 MOL      0.112874
     53 N5          5.6380   -2.9250    0.0280 n         1 MOL     -0.097368
     54 C17         6.7330   -2.6180    0.9210 c3        1 MOL     -0.218565
     55 C18         7.3950   -1.3190    0.5660 c         1 MOL      0.703226
     56 O9          8.3320   -1.0310    1.2750 o         1 MOL     -0.587303
     57 H25         4.8060   -2.3580    0.0420 hn        1 MOL      0.122192
     58 H26         7.4880   -3.4020    0.8510 h1        1 MOL      0.109350
     59 H27         6.3110   -2.6060    1.9270 h1        1 MOL      0.109350
     60 N6          6.8660   -0.4590   -0.3770 n         1 MOL     -0.444603
     61 C19         7.3430    0.9290   -0.6980 c3        1 MOL      0.164378
     62 C20         6.1880    1.9520   -0.6920 c         1 MOL      0.494205
     63 O10         5.0090    1.6210   -0.7760 o         1 MOL     -0.405769
     64 C21         8.1380    0.8110   -2.0640 c3        1 MOL     -0.424846
     65 C22         9.3750   -0.1240   -2.0620 c         1 MOL      0.679165
     66 N7         10.3170   -0.0470   -1.1470 n         1 MOL     -0.817985
     67 O11         9.4480   -0.9370   -3.0110 o         1 MOL     -0.558249
     68 H28         6.1180   -0.7760   -0.9810 hn        1 MOL      0.344783
     69 H29         8.0720    1.2310    0.0510 h1        1 MOL     -0.019442
     70 H30         8.5870    1.7840   -2.3030 hc        1 MOL      0.121854
     71 H31         7.4770    0.3760   -2.8150 hc        1 MOL      0.121854
     72 H32        10.2530    0.7100   -0.4770 hn        1 MOL      0.393913
     73 H33        10.9870   -0.8000   -1.1380 hn        1 MOL      0.393913
     74 N8          6.6020    3.2200   -0.5080 n         1 MOL     -0.352991
     75 C23         5.7310    4.4300   -0.6150 c3        1 MOL     -0.549888
     76 C24         4.5850    4.4480    0.4390 c         1 MOL      0.807048
     77 O12         4.7320    4.2090    1.5990 o         1 MOL     -0.535273
     78 H34         7.5990    3.2660   -0.3410 hn        1 MOL      0.311430
     79 H35         5.4450    4.3830   -1.6640 h1        1 MOL      0.214235
     80 H36         6.4490    5.2100   -0.3780 h1        1 MOL      0.214235
     81 N9          3.4890    4.8700   -0.1040 n         1 MOL     -0.592845
     82 C25         2.1970    4.8930    0.6860 c3        1 MOL      0.078229
     83 C26         1.6260    3.4250    0.7910 c         1 MOL      0.912810
     84 O13         2.0490    2.5540    0.0410 o         1 MOL     -0.825619
     85 C27         1.1040    5.7090   -0.0780 c3        1 MOL     -0.201918
     86 C28         1.3390    7.2050   -0.3200 ca        1 MOL      0.120785
     87 C29         1.3410    8.1220    0.7760 ca        1 MOL     -0.167523
     88 C30         1.5650    7.6420   -1.6320 ca        1 MOL     -0.167523
     89 C31         1.7340    9.4850    0.5510 ca        1 MOL     -0.261743
     90 C32         1.7590    8.9890   -1.9100 ca        1 MOL     -0.261743
     91 C33         1.8130    9.9290   -0.8020 ca        1 MOL      0.330037
     92 O14         1.9050   11.2880   -1.0500 oh        1 MOL     -0.488574
     93 H37         3.4190    4.9070   -1.1130 hn        1 MOL      0.316238
     94 H38         2.2860    5.2560    1.7130 h1        1 MOL      0.065454
     95 H39         0.1690    5.5700    0.4810 hc        1 MOL      0.051170
     96 H40         0.9940    5.1920   -1.0270 hc        1 MOL      0.051170
     97 H41         1.2080    7.7350    1.7670 ha        1 MOL      0.136634
     98 H42         1.6060    6.9470   -2.4530 ha        1 MOL      0.136634
     99 H43         1.6300   10.1230    1.4140 ha        1 MOL      0.167889
    100 H44         1.8180    9.3740   -2.9170 ha        1 MOL      0.167889
    101 H45         2.1040   11.8250   -0.2790 ho        1 MOL      0.376031
    102 N10         0.8050    3.1690    1.8450 n         1 MOL     -0.724611
    103 C34         0.1640    1.8930    2.3210 c3        1 MOL      0.062716
    104 C35        -0.1690    0.8080    1.2980 c         1 MOL      0.490550
    105 O15         0.7970    0.1880    0.7620 o         1 MOL     -0.396186
    106 C36         1.1090    1.2990    3.4300 c3        1 MOL      0.289875
    107 C37         0.4930    0.1700    4.3320 c3        1 MOL     -0.357999
    108 C38         2.0470    2.1800    4.2710 c3        1 MOL     -0.132886
    109 C39        -0.6890    0.5870    5.1140 c3        1 MOL     -0.268063
    110 H46         0.4800    4.0230    2.2820 hn        1 MOL      0.345250
    111 H47        -0.7230    2.1470    2.8980 h1        1 MOL      0.041354
    112 H48         1.8640    0.7600    2.8590 hc        1 MOL      0.018239
    113 H49         1.2620   -0.0950    5.0500 hc        1 MOL      0.148020
    114 H50         0.2780   -0.7540    3.7850 hc        1 MOL      0.148020
    115 H51         1.5320    2.7550    5.0350 hc        1 MOL      0.026707
    116 H52         2.7880    1.5800    4.8060 hc        1 MOL      0.026707
    117 H53         2.4770    2.9390    3.6150 hc        1 MOL      0.026707
    118 H54        -0.8890   -0.1430    5.8980 hc        1 MOL      0.076200
    119 H55        -0.5190    1.5300    5.6500 hc        1 MOL      0.076200
    120 H56        -1.5710    0.6310    4.4730 hc        1 MOL      0.076200
    121 N11        -1.4470    0.4660    1.1170 n         1 MOL     -0.380663
    122 C40        -1.8070   -0.7660    0.4480 c3        1 MOL     -0.068126
    123 C41        -3.2670   -0.8860    0.0760 c         1 MOL      0.637112
    124 O16        -3.5780   -1.6650   -0.8590 o         1 MOL     -0.540263
    125 C42        -1.4120   -1.9440    1.3470 c3        1 MOL      0.409592
    126 O17        -1.9140   -1.7930    2.6370 oh        1 MOL     -0.695513
    127 H57        -2.1120    1.0980    1.5390 hn        1 MOL      0.247168
    128 H58        -1.1960   -0.8820   -0.4520 h1        1 MOL      0.068895
    129 H59        -0.3350   -1.8110    1.3970 h1        1 MOL     -0.032360
    130 H60        -1.7540   -2.8510    0.8490 h1        1 MOL     -0.032360
    131 H61        -1.4810   -2.4020    3.2390 ho        1 MOL      0.426124
    132 N12        -4.2120    0.0080    0.6800 n         1 MOL     -0.695726
    133 C43        -5.5010    0.3380    0.1320 c3        1 MOL      0.219633
    134 C44        -5.4970    0.8440   -1.3250 c         1 MOL      0.635509
    135 O18        -4.5560    1.5230   -1.7720 o         1 MOL     -0.599837
    136 C45        -6.2350    1.3000    0.9910 c3        1 MOL     -0.366394
    137 H62        -3.9750    0.5300    1.5130 hn        1 MOL      0.376450
    138 H63        -6.0630   -0.5790    0.0620 h1        1 MOL      0.088765
    139 H64        -6.6400    0.7070    1.8120 hc        1 MOL      0.111255
    140 H65        -5.5070    2.0470    1.3150 hc        1 MOL      0.111255
    141 H66        -6.9280    1.7800    0.2990 hc        1 MOL      0.111255
    142 N13        -6.4660    0.5940   -2.1700 n         1 MOL     -0.653521
    143 C46        -7.7160   -0.1110   -1.9130 c3        1 MOL      0.528199
    144 C47        -8.8940    0.5710   -2.6710 c         1 MOL      0.407831
    145 O19        -8.5980    0.9690   -3.7830 o         1 MOL     -0.535115
    146 C48        -7.6420   -1.5250   -2.4220 c3        1 MOL     -0.406469
    147 H67        -6.3810    1.0040   -3.0920 hn        1 MOL      0.336044
    148 H68        -7.9900   -0.1370   -0.8540 h1        1 MOL     -0.094492
    149 H69        -7.3620   -1.4060   -3.4730 hc        1 MOL      0.102585
    150 H70        -6.9000   -1.9820   -1.7780 hc        1 MOL      0.102585
    151 H71        -8.5940   -2.0410   -2.2930 hc        1 MOL      0.102585
    152 N14       -10.1200    0.8130   -2.1420 n         1 MOL     -0.505702
    153 C49       -10.5400    0.4160   -0.7440 c3        1 MOL     -0.052446
    154 C50       -10.1750    1.4350    0.3120 c         1 MOL      0.574190
    155 O20        -9.5900    0.9470    1.3320 o         1 MOL     -0.555161
    156 C51       -12.0390    0.1330   -0.7210 c3        1 MOL      0.256064
    157 C52       -12.5430   -0.5170    0.5950 c3        1 MOL     -0.256748
    158 C53       -13.9930   -0.8010    0.5110 c         1 MOL      0.714574
    159 O21       -14.8150    0.1920    0.4970 o         1 MOL     -0.672314
    160 O22       -14.3100   -1.9800    0.4360 o         1 MOL     -0.672314
    161 H72       -10.7700    1.1600   -2.8300 hn        1 MOL      0.323851
    162 H73       -10.0290   -0.5060   -0.4560 h1        1 MOL      0.087130
    163 H74       -12.4100   -0.4280   -1.5780 hc        1 MOL     -0.055035
    164 H75       -12.4280    1.1510   -0.7350 hc        1 MOL     -0.055035
    165 H76       -12.3010    0.0340    1.4940 hc        1 MOL      0.045666
    166 H77       -12.0270   -1.4790    0.5590 hc        1 MOL      0.045666
    167 N15       -10.2410    2.7390   -0.0550 n         1 MOL     -0.347574
    168 C54        -9.4030    3.7220    0.6670 c3        1 MOL     -0.263948
    169 H78        -8.6760    3.1960    1.2840 h1        1 MOL      0.118576
    170 H79        -8.8800    4.3520   -0.0520 h1        1 MOL      0.118576
    171 H80       -10.0360    4.3430    1.3010 h1        1 MOL      0.118576
    172 H81       -10.5520    2.9990   -0.9770 hn        1 MOL      0.292338
    173 Ca1         2.6040    0.2780   -1.1340 Ca        1 MOL      1.793819
    174 O23         0.6460   -1.8270   -1.6020 oh        1 MOL     -0.800746
    175 H82         1.2480   -1.9880   -2.3220 ho        1 MOL      0.398580
    176 H83        -0.1590   -1.5150   -2.0240 ho        1 MOL      0.398580
    177 O24         0.2570    1.4690   -1.9180 oh        1 MOL     -0.800746
    178 H84        -0.3210    2.1630   -1.5970 ho        1 MOL      0.398580
    179 H85        -0.0550    1.2740   -2.8080 ho        1 MOL      0.398580
    180 O25         3.2130    2.0930   -3.4860 oh        1 MOL     -0.800746
    181 H86         2.3660    1.9640   -3.9010 ho        1 MOL      0.398580
    182 H87         3.7660    2.4890   -4.1580 ho        1 MOL      0.398580
@<TRIPOS>BOND
     1    1    2 1   
     2    1    4 1   
     3    1    5 1   
     4    1    6 1   
     5    2    3 2   
     6    2    7 1   
     7    7    8 1   
     8    7   15 1   
     9    8    9 1   
    10    8   11 1   
    11    8   16 1   
    12    9   10 2   
    13    9   19 1   
    14   11   12 1   
    15   11   17 1   
    16   11   18 1   
    17   12   13 1   
    18   12   14 1   
    19   19   20 1   
    20   19   28 1   
    21   20   21 1   
    22   20   23 1   
    23   20   29 1   
    24   21   22 2   
    25   21   41 1   
    26   23   24 1   
    27   23   30 1   
    28   23   31 1   
    29   24   25 1   
    30   24   32 1   
    31   24   33 1   
    32   25   26 1   
    33   25   34 1   
    34   25   35 1   
    35   26   27 1   
    36   26   36 1   
    37   26   37 1   
    38   27   38 1   
    39   27   39 1   
    40   27   40 1   
    41   41   42 1   
    42   41   49 1   
    43   42   43 1   
    44   42   45 1   
    45   42   50 1   
    46   43   44 2   
    47   43   53 1   
    48   45   46 1   
    49   45   51 1   
    50   45   52 1   
    51   46   47 1   
    52   46   48 1   
    53   53   54 1   
    54   53   57 1   
    55   54   55 1   
    56   54   58 1   
    57   54   59 1   
    58   55   56 2   
    59   55   60 1   
    60   60   61 1   
    61   60   68 1   
    62   61   62 1   
    63   61   64 1   
    64   61   69 1   
    65   62   63 2   
    66   62   74 1   
    67   64   65 1   
    68   64   70 1   
    69   64   71 1   
    70   65   66 1   
    71   65   67 2   
    72   66   72 1   
    73   66   73 1   
    74   74   75 1   
    75   74   78 1   
    76   75   76 1   
    77   75   79 1   
    78   75   80 1   
    79   76   77 2   
    80   76   81 1   
    81   81   82 1   
    82   81   93 1   
    83   82   83 1   
    84   82   85 1   
    85   82   94 1   
    86   83   84 2   
    87   83  102 1   
    88   85   86 1   
    89   85   95 1   
    90   85   96 1   
    91   86   87 ar  
    92   86   88 ar  
    93   87   89 ar  
    94   87   97 1   
    95   88   90 ar  
    96   88   98 1   
    97   89   91 ar  
    98   89   99 1   
    99   90   91 ar  
   100   90  100 1   
   101   91   92 1   
   102   92  101 1   
   103  102  103 1   
   104  102  110 1   
   105  103  104 1   
   106  103  106 1   
   107  103  111 1   
   108  104  105 2   
   109  104  121 1   
   110  106  107 1   
   111  106  108 1   
   112  106  112 1   
   113  107  109 1   
   114  107  113 1   
   115  107  114 1   
   116  108  115 1   
   117  108  116 1   
   118  108  117 1   
   119  109  118 1   
   120  109  119 1   
   121  109  120 1   
   122  121  122 1   
   123  121  127 1   
   124  122  123 1   
   125  122  125 1   
   126  122  128 1   
   127  123  124 2   
   128  123  132 1   
   129  125  126 1   
   130  125  129 1   
   131  125  130 1   
   132  126  131 1   
   133  132  133 1   
   134  132  137 1   
   135  133  134 1   
   136  133  136 1   
   137  133  138 1   
   138  134  135 2   
   139  134  142 1   
   140  136  139 1   
   141  136  140 1   
   142  136  141 1   
   143  142  143 1   
   144  142  147 1   
   145  143  144 1   
   146  143  146 1   
   147  143  148 1   
   148  144  145 2   
   149  144  152 1   
   150  146  149 1   
   151  146  150 1   
   152  146  151 1   
   153  152  153 1   
   154  152  161 1   
   155  153  154 1   
   156  153  156 1   
   157  153  162 1   
   158  154  155 2   
   159  154  167 1   
   160  156  157 1   
   161  156  163 1   
   162  156  164 1   
   163  157  158 1   
   164  157  165 1   
   165  157  166 1   
   166  158  159 1   
   167  158  160 1   
   168  167  168 1   
   169  167  172 1   
   170  168  169 1   
   171  168  170 1   
   172  168  171 1   
   173  174  175 1   
   174  174  176 1   
   175  177  178 1   
   176  177  179 1   
   177  180  181 1   
   178  180  182 1   
@<TRIPOS>SUBSTRUCTURE
     1 MOL         1 TEMP              0 ****  ****    0 ROOT
