@<TRIPOS>MOLECULE
MOL
  195   189     1     0     0
SMALL
resp


@<TRIPOS>ATOM
      1 C1          3.0890    6.5200   -2.3400 c3        1 MOL     -0.305163
      2 C2          3.7010    5.4350   -1.4220 c         1 MOL      0.711422
      3 O1          2.9890    4.6450   -0.7910 o         1 MOL     -0.717158
      4 H1          2.0020    6.4600   -2.2970 hc        1 MOL      0.080930
      5 H2          3.4110    7.5050   -2.0030 hc        1 MOL      0.080930
      6 H3          3.4210    6.3580   -3.3660 hc        1 MOL      0.080930
      7 N1          5.0470    5.3860   -1.3110 n         1 MOL     -0.581715
      8 C3          5.9340    4.3970   -0.6720 c3        1 MOL      0.147177
      9 C4          5.6560    2.9150   -0.9650 c         1 MOL      0.395957
     10 O2          5.6570    2.0490   -0.0890 o         1 MOL     -0.365155
     11 C5          6.3360    4.7560    0.8330 c3        1 MOL     -0.059991
     12 C6          5.1020    4.9540    1.6190 c         1 MOL      0.888756
     13 O3          5.0400    6.0630    2.2510 o         1 MOL     -0.809021
     14 O4          4.2390    4.0880    1.6480 o         1 MOL     -0.809021
     15 H4          5.4470    6.0840   -1.9260 hn        1 MOL      0.303511
     16 H5          6.8920    4.4840   -1.1640 h1        1 MOL      0.043078
     17 H6          6.9520    5.6570    0.7790 hc        1 MOL      0.007990
     18 H7          6.9080    3.9060    1.2230 hc        1 MOL      0.007990
     19 N2          5.4530    2.4870   -2.2400 n         1 MOL     -0.428242
     20 C7          5.3480    1.0640   -2.6520 c3        1 MOL     -0.033719
     21 C8          6.4820    0.1310   -2.1510 c         1 MOL      0.620403
     22 O5          7.4800   -0.0260   -2.8190 o         1 MOL     -0.570833
     23 C9          3.9400    0.5600   -2.3550 c3        1 MOL      0.369625
     24 C10         3.6560   -0.8590   -2.9130 c3        1 MOL     -0.018331
     25 C11         2.7900    1.5980   -2.6070 c3        1 MOL     -0.242035
     26 C12         3.8580   -1.0350   -4.4230 c3        1 MOL     -0.428976
     27 H8          5.4670    3.1660   -2.9850 hn        1 MOL      0.263343
     28 H9          5.4500    1.0580   -3.7330 h1        1 MOL      0.027028
     29 H10         3.9610    0.4480   -1.2720 hc        1 MOL     -0.192027
     30 H11         2.6470   -1.2100   -2.6970 hc        1 MOL      0.040192
     31 H12         4.3580   -1.5500   -2.4630 hc        1 MOL      0.040192
     32 H13         2.8630    2.4740   -1.9530 hc        1 MOL      0.051022
     33 H14         2.7220    1.8990   -3.6520 hc        1 MOL      0.051022
     34 H15         1.8260    1.1370   -2.3830 hc        1 MOL      0.051022
     35 H16         3.1230   -0.3870   -4.9190 hc        1 MOL      0.097920
     36 H17         4.8820   -0.7560   -4.6700 hc        1 MOL      0.097920
     37 H18         3.6930   -2.0960   -4.5810 hc        1 MOL      0.097920
     38 N3          6.3780   -0.5490   -0.9420 n         1 MOL     -0.517768
     39 C13         7.5240   -1.4210   -0.5030 c3        1 MOL      0.192630
     40 C14         7.5300   -2.8450   -1.0230 c         1 MOL      0.590582
     41 O6          8.5540   -3.3040   -1.5380 o         1 MOL     -0.542506
     42 C15         7.6650   -1.2760    1.0360 c3        1 MOL     -0.177081
     43 C16         9.0770   -1.2910    1.4610 c         1 MOL      0.827620
     44 O7          9.6230   -2.2710    1.7300 o         1 MOL     -0.781014
     45 O8          9.6490   -0.1840    1.5650 o         1 MOL     -0.781014
     46 H19         5.7640   -0.2300   -0.2100 hn        1 MOL      0.321269
     47 H20         8.4470   -0.9930   -0.9020 h1        1 MOL      0.029352
     48 H21         7.0600   -2.0030    1.5910 hc        1 MOL      0.011204
     49 H22         7.2440   -0.3270    1.3570 hc        1 MOL      0.011204
     50 N4          6.4100   -3.6450   -0.9320 n         1 MOL     -0.666346
     51 C17         5.2920   -3.5580   -0.0110 c3        1 MOL      0.404005
     52 C18         5.4830   -4.4580    1.2210 c         1 MOL      0.495420
     53 O9          6.5010   -5.0950    1.3620 o         1 MOL     -0.505915
     54 H23         6.5140   -4.4860   -1.4680 hn        1 MOL      0.309490
     55 H24         4.3400   -3.8580   -0.4520 h1        1 MOL     -0.043519
     56 H25         5.2270   -2.5270    0.3340 h1        1 MOL     -0.043519
     57 N5          4.5210   -4.6200    2.1840 n         1 MOL     -0.692639
     58 C19         3.2470   -3.9360    2.3300 c3        1 MOL      0.438019
     59 C20         3.4810   -2.4700    2.6500 c         1 MOL      0.416112
     60 O10         4.5490   -2.1740    3.1170 o         1 MOL     -0.517599
     61 C21         2.3370   -4.6400    3.3810 c3        1 MOL     -0.404639
     62 C22         2.0220   -6.0710    3.0410 c         1 MOL      0.757993
     63 O11         2.2160   -6.4940    1.8640 o         1 MOL     -0.710904
     64 O12         1.4640   -6.7350    3.9760 o         1 MOL     -0.710904
     65 H26         4.8520   -5.1060    3.0020 hn        1 MOL      0.366700
     66 H27         2.7800   -3.8790    1.3390 h1        1 MOL     -0.020868
     67 H28         1.4460   -4.0160    3.4590 hc        1 MOL      0.091806
     68 H29         2.9300   -4.6880    4.2970 hc        1 MOL      0.091806
     69 N6          2.6480   -1.4690    2.3580 n         1 MOL     -0.448415
     70 C23         1.3000   -1.5490    1.6700 c3        1 MOL     -0.243904
     71 C24         1.3830   -2.0650    0.2180 c         1 MOL      0.650223
     72 O13         2.4210   -1.9680   -0.3530 o         1 MOL     -0.524135
     73 H30         3.0400   -0.5400    2.4520 hn        1 MOL      0.337820
     74 H31         0.8570   -0.5530    1.6410 h1        1 MOL      0.123996
     75 H32         0.5870   -2.1020    2.2790 h1        1 MOL      0.123996
     76 N7          0.3160   -2.6360   -0.4780 n         1 MOL     -0.589263
     77 C25         0.3640   -3.1410   -1.8600 c3        1 MOL      0.293712
     78 C26        -0.2530   -2.3190   -3.0320 c         1 MOL      0.517962
     79 O14        -0.1680   -2.8340   -4.1860 o         1 MOL     -0.550033
     80 C27        -0.1630   -4.6260   -1.9000 c3        1 MOL     -0.115866
     81 C28         0.4830   -5.5170   -0.8650 c3        1 MOL      0.048094
     82 C29         0.0720   -6.9600   -0.9610 c         1 MOL      0.594636
     83 N8          0.6430   -7.7790   -0.0740 n         1 MOL     -0.765444
     84 O15        -0.7770   -7.3010   -1.6960 o         1 MOL     -0.586941
     85 H33        -0.5930   -2.6620   -0.0490 hn        1 MOL      0.272359
     86 H34         1.4080   -3.1300   -2.1680 h1        1 MOL      0.039275
     87 H35        -0.0350   -5.0720   -2.8790 hc        1 MOL      0.013374
     88 H36        -1.2360   -4.6360   -1.6720 hc        1 MOL      0.013374
     89 H37         0.4420   -5.1820    0.1680 hc        1 MOL      0.012750
     90 H38         1.5600   -5.4440   -1.0550 hc        1 MOL      0.012750
     91 H39         1.3470   -7.3400    0.4950 hn        1 MOL      0.343399
     92 H40         0.4870   -8.7740   -0.1130 hn        1 MOL      0.343399
     93 N9         -0.9660   -1.2190   -2.8000 n         1 MOL     -0.475866
     94 C30        -2.2080   -0.9610   -3.5270 c3        1 MOL     -0.038804
     95 C31        -3.3630   -1.6990   -2.8660 c         1 MOL      0.548166
     96 O16        -3.5340   -1.7260   -1.6550 o         1 MOL     -0.509464
     97 C32        -2.4100    0.5600   -3.6280 c3        1 MOL      0.244731
     98 C33        -3.8160    1.0540   -3.6130 c3        1 MOL     -0.174103
     99 C34        -1.6160    1.2210   -4.7270 c3        1 MOL     -0.174103
    100 H41        -0.6590   -0.6450   -2.0280 hn        1 MOL      0.276256
    101 H42        -2.0910   -1.4200   -4.5100 h1        1 MOL      0.078553
    102 H43        -1.9370    1.0220   -2.7570 hc        1 MOL      0.032040
    103 H44        -3.8350    2.1410   -3.6630 hc        1 MOL      0.018410
    104 H45        -4.3970    0.7500   -4.4860 hc        1 MOL      0.018410
    105 H46        -4.3180    0.6700   -2.7260 hc        1 MOL      0.018410
    106 H47        -2.1320    1.1250   -5.6830 hc        1 MOL      0.018410
    107 H48        -1.4110    2.2290   -4.3870 hc        1 MOL      0.018410
    108 H49        -0.7040    0.6670   -4.8980 hc        1 MOL      0.018410
    109 N10        -4.3320   -2.1860   -3.6590 n         1 MOL     -0.491353
    110 C35        -5.6490   -2.6760   -3.2970 c3        1 MOL      0.310986
    111 C36        -6.6260   -1.6640   -2.6240 c         1 MOL      0.214065
    112 O17        -7.7430   -1.3670   -3.1220 o         1 MOL     -0.566590
    113 C37        -5.4640   -3.8440   -2.3540 c3        1 MOL     -0.453014
    114 C38        -6.7730   -4.6420   -2.0070 c         1 MOL      0.749873
    115 N11        -7.7120   -4.8840   -2.8650 n         1 MOL     -0.842571
    116 O18        -6.9340   -4.8810   -0.8350 o         1 MOL     -0.578005
    117 H50        -4.2240   -2.1470   -4.6720 hn        1 MOL      0.280005
    118 H51        -6.1450   -3.0160   -4.2080 h1        1 MOL      0.004500
    119 H52        -5.0410   -3.5210   -1.4100 hc        1 MOL      0.155989
    120 H53        -4.7120   -4.5610   -2.7010 hc        1 MOL      0.155989
    121 H54        -7.6560   -4.5490   -3.8190 hn        1 MOL      0.372590
    122 H55        -8.6080   -5.1490   -2.4660 hn        1 MOL      0.372590
    123 N12        -6.2390   -1.0070   -1.5340 n         1 MOL      0.129794
    124 C39        -7.0850   -0.0480   -0.7570 c3        1 MOL     -0.029458
    125 C40        -6.3680    0.9100    0.1390 c         1 MOL      0.424316
    126 O19        -5.1560    0.8570    0.2490 o         1 MOL     -0.445058
    127 C41        -8.0790   -0.9260    0.0930 c3        1 MOL     -0.121234
    128 C42        -7.5310   -1.5450    1.3730 ca        1 MOL     -0.028194
    129 C43        -6.3400   -2.2970    1.3030 ca        1 MOL     -0.086058
    130 C44        -8.1180   -1.2920    2.6210 ca        1 MOL     -0.086058
    131 C45        -5.7810   -2.8810    2.4840 ca        1 MOL     -0.284793
    132 C46        -7.5270   -1.8170    3.7980 ca        1 MOL     -0.284793
    133 C47        -6.3930   -2.6280    3.6980 ca        1 MOL      0.324238
    134 O20        -5.9230   -3.1980    4.8670 oh        1 MOL     -0.514921
    135 H56        -5.2750   -1.1610   -1.2910 hn        1 MOL      0.150092
    136 H57        -7.6820    0.5420   -1.4590 h1        1 MOL      0.054099
    137 H58        -8.4770   -1.7400   -0.5070 hc        1 MOL      0.054208
    138 H59        -8.9150   -0.2530    0.3270 hc        1 MOL      0.054208
    139 H60        -5.9260   -2.5480    0.3400 ha        1 MOL      0.091833
    140 H61        -9.1150   -0.8780    2.6160 ha        1 MOL      0.091833
    141 H62        -4.8690   -3.4590    2.3980 ha        1 MOL      0.170091
    142 H63        -8.0510   -1.7530    4.7390 ha        1 MOL      0.170091
    143 H64        -5.1520   -3.7510    4.7240 ho        1 MOL      0.399807
    144 N13        -7.0360    1.9060    0.7530 n         1 MOL     -0.472862
    145 C48        -6.3780    2.7940    1.7430 c3        1 MOL     -0.026495
    146 C49        -5.1260    3.5980    1.3560 c         1 MOL      0.517440
    147 O21        -4.4930    4.0670    2.2790 o         1 MOL     -0.456924
    148 C50        -6.2890    2.0940    3.1130 c3        1 MOL      0.026003
    149 C51        -5.2480    0.9640    3.1950 c3        1 MOL     -0.238342
    150 C52        -4.8600    0.6370    4.6710 c         1 MOL      0.811059
    151 O22        -5.4710    1.1390    5.6510 o         1 MOL     -0.759800
    152 O23        -3.8550   -0.1180    4.7830 o         1 MOL     -0.759800
    153 H65        -8.0190    2.1390    0.6330 hn        1 MOL      0.316458
    154 H66        -7.0280    3.6550    1.9090 h1        1 MOL      0.027567
    155 H67        -7.2530    1.6280    3.3030 hc        1 MOL      0.002703
    156 H68        -6.0340    2.7850    3.9220 hc        1 MOL      0.002703
    157 H69        -4.3640    1.2530    2.6420 hc        1 MOL      0.081682
    158 H70        -5.6520    0.0700    2.7350 hc        1 MOL      0.081682
    159 N14        -4.7480    3.7530    0.0910 n         1 MOL     -0.497906
    160 C53        -3.6080    4.5360   -0.3830 c3        1 MOL     -0.063973
    161 C54        -4.0730    5.9510   -0.9450 c         1 MOL      0.396924
    162 O24        -3.3780    6.9640   -0.9250 o         1 MOL     -0.507468
    163 C55        -2.9050    3.7530   -1.4250 c3        1 MOL      0.332054
    164 C56        -1.4440    4.1910   -1.8080 c3        1 MOL     -0.226683
    165 C57        -0.5180    3.9400   -0.6050 c         1 MOL      0.877116
    166 O25        -0.3130    4.8090    0.2630 o         1 MOL     -0.810871
    167 O26        -0.0010    2.7660   -0.4060 o         1 MOL     -0.810871
    168 H71        -5.2840    3.1770   -0.5450 hn        1 MOL      0.249104
    169 H72        -2.9770    4.7550    0.4760 h1        1 MOL      0.145537
    170 H73        -3.4560    3.6960   -2.3630 hc        1 MOL     -0.058588
    171 H74        -2.9240    2.7060   -1.1060 hc        1 MOL     -0.058588
    172 H75        -1.4080    5.2390   -2.0990 hc        1 MOL      0.043654
    173 H76        -1.0880    3.6310   -2.6720 hc        1 MOL      0.043654
    174 N15        -5.3140    5.9490   -1.4600 n         1 MOL     -0.215423
    175 C58        -5.9540    7.1010   -2.1540 c3        1 MOL     -0.177276
    176 H77        -7.0370    6.9720   -2.1470 h1        1 MOL      0.087155
    177 H78        -5.6960    8.0260   -1.6370 h1        1 MOL      0.087155
    178 H79        -5.6000    7.1490   -3.1830 h1        1 MOL      0.087155
    179 H80        -5.7160    5.0130   -1.4190 hn        1 MOL      0.185328
    180 Ca1         1.7110    3.9100    1.4370 Ca        1 MOL      1.772632
    181 O27         2.9020    1.5260    0.8130 oh        1 MOL     -0.758189
    182 H81         3.7870    1.4440    0.4590 ho        1 MOL      0.377010
    183 H82         2.4350    0.7570    0.4760 ho        1 MOL      0.377010
    184 O28         0.5440    4.9410    3.4610 oh        1 MOL     -0.758189
    185 H83        -0.3040    4.6260    3.7840 ho        1 MOL      0.377010
    186 H84         0.8040    5.6180    4.0860 ho        1 MOL      0.377010
    187 O29         2.4030    6.4990    1.7280 oh        1 MOL     -0.758189
    188 H85         3.2900    6.3720    2.0510 ho        1 MOL      0.377010
    189 H86         2.1500    7.3710    2.0430 ho        1 MOL      0.377010
    190 O30         2.7170    2.8290    3.8120 oh        1 MOL     -0.758189
    191 H87         2.8420    2.0110    4.2870 ho        1 MOL      0.377010
    192 H88         2.5770    3.4820    4.4990 ho        1 MOL      0.377010
    193 O31         0.2590    1.8670    2.2410 oh        1 MOL     -0.758189
    194 H89         0.1460    1.1750    1.5970 ho        1 MOL      0.377010
    195 H90         0.1390    1.4340    3.0830 ho        1 MOL      0.377010
@<TRIPOS>BOND
     1    1    2 1   
     2    1    4 1   
     3    1    5 1   
     4    1    6 1   
     5    2    3 2   
     6    2    7 1   
     7    7    8 1   
     8    7   15 1   
     9    8    9 1   
    10    8   11 1   
    11    8   16 1   
    12    9   10 2   
    13    9   19 1   
    14   11   12 1   
    15   11   17 1   
    16   11   18 1   
    17   12   13 1   
    18   12   14 1   
    19   19   20 1   
    20   19   27 1   
    21   20   21 1   
    22   20   23 1   
    23   20   28 1   
    24   21   22 2   
    25   21   38 1   
    26   23   24 1   
    27   23   25 1   
    28   23   29 1   
    29   24   26 1   
    30   24   30 1   
    31   24   31 1   
    32   25   32 1   
    33   25   33 1   
    34   25   34 1   
    35   26   35 1   
    36   26   36 1   
    37   26   37 1   
    38   38   39 1   
    39   38   46 1   
    40   39   40 1   
    41   39   42 1   
    42   39   47 1   
    43   40   41 2   
    44   40   50 1   
    45   42   43 1   
    46   42   48 1   
    47   42   49 1   
    48   43   44 1   
    49   43   45 1   
    50   50   51 1   
    51   50   54 1   
    52   51   52 1   
    53   51   55 1   
    54   51   56 1   
    55   52   53 2   
    56   52   57 1   
    57   57   58 1   
    58   57   65 1   
    59   58   59 1   
    60   58   61 1   
    61   58   66 1   
    62   59   60 2   
    63   59   69 1   
    64   61   62 1   
    65   61   67 1   
    66   61   68 1   
    67   62   63 1   
    68   62   64 1   
    69   69   70 1   
    70   69   73 1   
    71   70   71 1   
    72   70   74 1   
    73   70   75 1   
    74   71   72 2   
    75   71   76 1   
    76   76   77 1   
    77   76   85 1   
    78   77   78 1   
    79   77   80 1   
    80   77   86 1   
    81   78   79 2   
    82   78   93 1   
    83   80   81 1   
    84   80   87 1   
    85   80   88 1   
    86   81   82 1   
    87   81   89 1   
    88   81   90 1   
    89   82   83 1   
    90   82   84 2   
    91   83   91 1   
    92   83   92 1   
    93   93   94 1   
    94   93  100 1   
    95   94   95 1   
    96   94   97 1   
    97   94  101 1   
    98   95   96 2   
    99   95  109 1   
   100   97   98 1   
   101   97   99 1   
   102   97  102 1   
   103   98  103 1   
   104   98  104 1   
   105   98  105 1   
   106   99  106 1   
   107   99  107 1   
   108   99  108 1   
   109  109  110 1   
   110  109  117 1   
   111  110  111 1   
   112  110  113 1   
   113  110  118 1   
   114  111  112 2   
   115  111  123 1   
   116  113  114 1   
   117  113  119 1   
   118  113  120 1   
   119  114  115 1   
   120  114  116 2   
   121  115  121 1   
   122  115  122 1   
   123  123  124 1   
   124  123  135 1   
   125  124  125 1   
   126  124  127 1   
   127  124  136 1   
   128  125  126 2   
   129  125  144 1   
   130  127  128 1   
   131  127  137 1   
   132  127  138 1   
   133  128  129 ar  
   134  128  130 ar  
   135  129  131 ar  
   136  129  139 1   
   137  130  132 ar  
   138  130  140 1   
   139  131  133 ar  
   140  131  141 1   
   141  132  133 ar  
   142  132  142 1   
   143  133  134 1   
   144  134  143 1   
   145  144  145 1   
   146  144  153 1   
   147  145  146 1   
   148  145  148 1   
   149  145  154 1   
   150  146  147 2   
   151  146  159 1   
   152  148  149 1   
   153  148  155 1   
   154  148  156 1   
   155  149  150 1   
   156  149  157 1   
   157  149  158 1   
   158  150  151 1   
   159  150  152 1   
   160  159  160 1   
   161  159  168 1   
   162  160  161 1   
   163  160  163 1   
   164  160  169 1   
   165  161  162 2   
   166  161  174 1   
   167  163  164 1   
   168  163  170 1   
   169  163  171 1   
   170  164  165 1   
   171  164  172 1   
   172  164  173 1   
   173  165  166 1   
   174  165  167 1   
   175  174  175 1   
   176  174  179 1   
   177  175  176 1   
   178  175  177 1   
   179  175  178 1   
   180  181  182 1   
   181  181  183 1   
   182  184  185 1   
   183  184  186 1   
   184  187  188 1   
   185  187  189 1   
   186  190  191 1   
   187  190  192 1   
   188  193  194 1   
   189  193  195 1   
@<TRIPOS>SUBSTRUCTURE
     1 MOL         1 TEMP              0 ****  ****    0 ROOT
