@<TRIPOS>MOLECULE
MOL
  186   183     1     0     0
SMALL
resp


@<TRIPOS>ATOM
      1 C1        -11.3730    4.2140    4.5970 c3        1 MOL     -0.490042
      2 C2        -11.3940    3.2700    3.3440 c         1 MOL      0.601870
      3 O1        -12.2530    2.3730    3.3390 o         1 MOL     -0.575441
      4 H1        -11.0820    5.2180    4.2890 hc        1 MOL      0.132623
      5 H2        -12.3660    4.2460    5.0460 hc        1 MOL      0.132623
      6 H3        -10.6560    3.8350    5.3260 hc        1 MOL      0.132623
      7 N1        -10.7000    3.6360    2.2390 n         1 MOL     -0.053025
      8 C3        -10.8210    2.8890    0.9910 c3        1 MOL     -0.598033
      9 C4         -9.7150    1.8220    0.7110 c         1 MOL      0.479668
     10 O2         -8.7070    1.7850    1.4390 o         1 MOL     -0.449281
     11 C5        -10.9210    3.9260   -0.1350 c3        1 MOL      0.351794
     12 C6        -10.0100    5.1870   -0.0780 c         1 MOL      0.502057
     13 O3         -8.9780    5.2180    0.6070 o         1 MOL     -0.653309
     14 O4        -10.2890    6.0850   -0.8500 o         1 MOL     -0.653309
     15 H4        -10.0250    4.3860    2.3170 hn        1 MOL      0.066228
     16 H5        -11.7620    2.3490    1.0480 h1        1 MOL      0.205278
     17 H6        -11.9920    4.1760   -0.1360 hc        1 MOL     -0.009127
     18 H7        -10.8620    3.4540   -1.1180 hc        1 MOL     -0.009127
     19 N2         -9.7640    0.9890   -0.3540 n         1 MOL     -0.487471
     20 C7         -9.0030   -0.2580   -0.6290 c3        1 MOL      0.318704
     21 C8         -7.6660   -0.0690   -1.4010 c         1 MOL      0.275674
     22 O5         -7.2930   -0.7450   -2.3520 o         1 MOL     -0.482122
     23 C9         -9.9590   -1.1840   -1.3040 c3        1 MOL      0.061645
     24 C10       -10.9450   -1.7870   -0.2880 c3        1 MOL      0.035431
     25 C11       -11.8380   -2.9780   -0.7910 c3        1 MOL     -0.198707
     26 C12       -12.7870   -3.4030    0.3220 c3        1 MOL      0.137969
     27 N3        -13.2110   -4.7650    0.2210 n4        1 MOL     -0.258722
     28 H8        -10.5500    1.2100   -0.9560 hn        1 MOL      0.278276
     29 H9         -8.7390   -0.6930    0.3380 h1        1 MOL     -0.018064
     30 H10        -9.3400   -2.0380   -1.5600 hc        1 MOL      0.002854
     31 H11       -10.3950   -0.7940   -2.2230 hc        1 MOL      0.002854
     32 H12       -11.5910   -0.9580    0.0090 hc        1 MOL      0.006178
     33 H13       -10.3620   -1.9790    0.6060 hc        1 MOL      0.006178
     34 H14       -11.0980   -3.7160   -1.0860 hc        1 MOL      0.074853
     35 H15       -12.4780   -2.6410   -1.6180 hc        1 MOL      0.074853
     36 H16       -13.5510   -2.6280    0.3930 hx        1 MOL      0.053294
     37 H17       -12.2460   -3.3080    1.2620 hx        1 MOL      0.053294
     38 H18       -13.8780   -4.7960   -0.5350 hn        1 MOL      0.263046
     39 H19       -12.4920   -5.3750   -0.1470 hn        1 MOL      0.263046
     40 H20       -13.5810   -5.1690    1.0800 hn        1 MOL      0.263046
     41 N4         -6.9980    0.9730   -0.9770 n         1 MOL      0.110341
     42 C13        -5.7210    1.4970   -1.3860 c3        1 MOL     -0.295646
     43 C14        -4.8770    2.0300   -0.2570 c         1 MOL      0.253616
     44 O6         -5.4530    2.7370    0.6320 o         1 MOL     -0.633876
     45 C15        -5.8750    2.5620   -2.5510 c3        1 MOL     -0.458349
     46 C16        -6.9440    3.6490   -2.4090 c         1 MOL      0.657223
     47 O7         -7.6770    3.9300   -3.3530 o         1 MOL     -0.617058
     48 O8         -6.9950    4.3570   -1.4210 o         1 MOL     -0.617058
     49 H21        -7.3250    1.4400   -0.1400 hn        1 MOL      0.169533
     50 H22        -5.1840    0.7540   -1.9800 h1        1 MOL      0.242669
     51 H23        -6.1560    2.0880   -3.4950 hc        1 MOL      0.160259
     52 H24        -4.8880    3.0290   -2.6540 hc        1 MOL      0.160259
     53 N5         -3.5910    1.6670   -0.1760 n         1 MOL     -0.004785
     54 C17        -2.7720    0.8260   -1.1400 c3        1 MOL     -0.541613
     55 C18        -3.2720   -0.6380   -1.2760 c         1 MOL      0.837366
     56 O9         -4.0510   -1.1340   -0.5080 o         1 MOL     -0.576855
     57 H25        -3.1670    2.0780    0.6420 hn        1 MOL      0.210818
     58 H26        -1.7520    0.7770   -0.7550 h1        1 MOL      0.189040
     59 H27        -2.8180    1.2630   -2.1420 h1        1 MOL      0.189040
     60 N6         -3.0080   -1.2710   -2.4400 n         1 MOL     -0.691156
     61 C19        -3.5540   -2.5940   -2.8790 c3        1 MOL      0.058165
     62 C20        -2.7610   -3.7760   -2.3080 c         1 MOL      0.504213
     63 O10        -1.5650   -3.8980   -2.5710 o         1 MOL     -0.519311
     64 C21        -3.6060   -2.6300   -4.4160 c3        1 MOL     -0.030035
     65 C22        -4.4410   -3.7730   -4.9490 c         1 MOL      0.657544
     66 O11        -3.8950   -4.5980   -5.7130 o         1 MOL     -0.654113
     67 O12        -5.5940   -3.9020   -4.4940 o         1 MOL     -0.654113
     68 H28        -2.3860   -0.7710   -3.0600 hn        1 MOL      0.344779
     69 H29        -4.5420   -2.7310   -2.4490 h1        1 MOL      0.050407
     70 H30        -2.6440   -2.5140   -4.9010 hc        1 MOL      0.018768
     71 H31        -4.1870   -1.7650   -4.7420 hc        1 MOL      0.018768
     72 N7         -3.4320   -4.7030   -1.6240 n         1 MOL     -0.232178
     73 C23        -2.9040   -6.0240   -1.2870 c3        1 MOL     -0.355692
     74 C24        -1.8460   -6.0210   -0.1550 c         1 MOL      0.543858
     75 O13        -1.2490   -7.0620    0.0320 o         1 MOL     -0.539848
     76 H32        -4.4150   -4.4770   -1.5580 hn        1 MOL      0.240096
     77 H33        -2.4130   -6.4110   -2.1760 h1        1 MOL      0.180814
     78 H34        -3.7750   -6.6340   -1.0420 h1        1 MOL      0.180814
     79 N8         -1.5680   -4.8810    0.5090 n         1 MOL     -0.244378
     80 C25        -0.5050   -4.4720    1.4070 c3        1 MOL     -0.052122
     81 C26         0.0480   -3.1160    1.0150 c         1 MOL      0.580655
     82 O14        -0.5890   -2.2760    0.3710 o         1 MOL     -0.493053
     83 C27        -0.9040   -4.4210    2.9160 c3        1 MOL      0.245930
     84 C28        -1.9820   -3.4280    3.4460 c3        1 MOL     -0.366490
     85 O15        -1.4230   -5.7090    3.2940 oh        1 MOL     -0.548639
     86 H35        -2.1900   -4.1280    0.2520 hn        1 MOL      0.173273
     87 H36         0.2510   -5.2510    1.3200 h1        1 MOL      0.078489
     88 H37        -0.0730   -4.1670    3.5790 h1        1 MOL      0.025363
     89 H38        -0.6270   -6.2490    3.3950 ho        1 MOL      0.356498
     90 H39        -1.8430   -2.4790    2.9360 hc        1 MOL      0.110165
     91 H40        -2.9500   -3.6560    2.9950 hc        1 MOL      0.110165
     92 H41        -2.0110   -3.4770    4.5400 hc        1 MOL      0.110165
     93 N9          1.2620   -2.6950    1.4970 n         1 MOL     -0.534000
     94 C29         1.8820   -1.3280    1.3740 c3        1 MOL     -0.015938
     95 C30         3.2220   -1.5470    0.6660 c         1 MOL      0.752998
     96 O16         3.4980   -0.6680   -0.1850 o         1 MOL     -0.562610
     97 C31         2.0530   -0.6600    2.8020 c3        1 MOL      0.173294
     98 C32         0.7870   -0.8080    3.6600 c3        1 MOL     -0.038574
     99 C33         2.4700    0.8480    2.5970 c3        1 MOL     -0.284642
    100 C34         0.9350   -0.2130    5.0850 c3        1 MOL     -0.298246
    101 H42         1.6990   -3.4190    2.0440 hn        1 MOL      0.217790
    102 H43         1.3310   -0.7010    0.6630 h1        1 MOL      0.093140
    103 H44         2.8150   -1.2050    3.3690 hc        1 MOL      0.004073
    104 H45         0.6330   -1.8740    3.8660 hc        1 MOL      0.051921
    105 H46        -0.0520   -0.3190    3.1740 hc        1 MOL      0.051921
    106 H47         3.2040    0.8370    1.7890 hc        1 MOL      0.076938
    107 H48         1.5800    1.3690    2.2500 hc        1 MOL      0.076938
    108 H49         2.8950    1.3130    3.4820 hc        1 MOL      0.076938
    109 H50         1.1080    0.8480    4.8900 hc        1 MOL      0.075623
    110 H51         0.0490   -0.1690    5.7170 hc        1 MOL      0.075623
    111 H52         1.7650   -0.6970    5.5880 hc        1 MOL      0.075623
    112 N10         4.0800   -2.5390    1.0040 n         1 MOL     -0.698731
    113 C35         5.4450   -2.6830    0.4990 c3        1 MOL      0.048424
    114 C36         6.6240   -2.6980    1.5850 c         1 MOL      0.658819
    115 O17         6.3210   -2.9920    2.7540 o         1 MOL     -0.553857
    116 C37         5.5060   -3.9510   -0.3650 c3        1 MOL      0.283311
    117 C38         4.6200   -3.8980   -1.6670 c3        1 MOL     -0.288367
    118 O18         6.7800   -4.2280   -0.8110 oh        1 MOL     -0.695078
    119 H53         3.8800   -3.1590    1.7730 hn        1 MOL      0.343966
    120 H54         5.6690   -1.8140   -0.1300 h1        1 MOL      0.105698
    121 H55         5.1750   -4.8000    0.2340 h1        1 MOL      0.006132
    122 H56         6.7820   -5.1020   -1.2000 ho        1 MOL      0.437148
    123 H57         4.9880   -3.0450   -2.2470 hc        1 MOL      0.092296
    124 H58         4.5720   -4.7930   -2.2780 hc        1 MOL      0.092296
    125 H59         3.5950   -3.6700   -1.4130 hc        1 MOL      0.092296
    126 N11         7.8070   -2.2510    1.1710 n         1 MOL     -0.691464
    127 C39         8.9900   -2.2050    1.9940 c3        1 MOL      0.114391
    128 C40         9.8700   -0.9170    1.7070 c         1 MOL      0.552020
    129 O19        10.7150   -0.6060    2.5020 o         1 MOL     -0.553174
    130 C41         9.8090   -3.4300    1.7560 c3        1 MOL      0.219310
    131 C42        11.0400   -3.5140    2.6780 c3        1 MOL     -0.258624
    132 O20        10.2290   -3.5460    0.4180 oh        1 MOL     -0.630983
    133 H60         7.8580   -2.3470    0.1670 hn        1 MOL      0.394062
    134 H61         8.8400   -2.1290    3.0670 h1        1 MOL      0.107351
    135 H62         9.2110   -4.3030    2.0270 h1        1 MOL      0.044217
    136 H63        10.1140   -4.4740    0.2170 ho        1 MOL      0.414733
    137 H64        11.7830   -2.7870    2.3530 hc        1 MOL      0.065884
    138 H65        10.7560   -3.2970    3.7070 hc        1 MOL      0.065884
    139 H66        11.4570   -4.5150    2.7900 hc        1 MOL      0.065884
    140 N12         9.6870   -0.2520    0.5740 n         1 MOL     -0.344248
    141 C43        10.5370    0.8450    0.0100 c3        1 MOL     -0.003311
    142 C44         9.7130    1.8050   -0.8780 c         1 MOL      0.533027
    143 O21         8.9670    1.3310   -1.7130 o         1 MOL     -0.467957
    144 C45        11.8100    0.2530   -0.6260 c3        1 MOL     -0.341693
    145 C46        12.9850    1.2930   -0.7130 c3        1 MOL      0.239558
    146 C47        14.0540    0.7590   -1.6900 c3        1 MOL     -0.032776
    147 C48        14.6160   -0.6130   -1.3770 c3        1 MOL      0.159903
    148 N13        15.2160   -0.6940   -0.0120 n4        1 MOL     -0.339628
    149 H67         8.9250   -0.5560   -0.0130 hn        1 MOL      0.214331
    150 H68        10.8570    1.3140    0.9420 h1        1 MOL      0.054081
    151 H69        11.4890   -0.0520   -1.6300 hc        1 MOL      0.137203
    152 H70        12.1470   -0.6640   -0.1590 hc        1 MOL      0.137203
    153 H71        13.4930    1.4710    0.2310 hc        1 MOL     -0.047883
    154 H72        12.7520    2.3160   -1.0130 hc        1 MOL     -0.047883
    155 H73        14.9020    1.4380   -1.6850 hc        1 MOL      0.025417
    156 H74        13.5440    0.6260   -2.6360 hc        1 MOL      0.025417
    157 H75        15.4120   -0.8900   -2.0730 hx        1 MOL      0.031060
    158 H76        13.8700   -1.3910   -1.5440 hx        1 MOL      0.031060
    159 H77        15.9450   -0.0170    0.1290 hn        1 MOL      0.276132
    160 H78        14.5090   -0.5960    0.7150 hn        1 MOL      0.276132
    161 H79        15.6410   -1.5890    0.1440 hn        1 MOL      0.276132
    162 N14         9.8860    3.1510   -0.6630 n         1 MOL     -0.525004
    163 C49         9.3360    4.2160   -1.4670 c3        1 MOL      0.404348
    164 C50         7.7670    4.2980   -1.5260 c         1 MOL      0.236191
    165 O22         7.2920    4.5390   -2.6820 o         1 MOL     -0.508462
    166 C51         9.9220    5.6090   -1.0850 c3        1 MOL      0.010518
    167 C52        11.4250    5.6800   -1.4490 c3        1 MOL     -0.196445
    168 C53        11.9210    7.0030   -0.9900 c         1 MOL      0.688943
    169 O23        12.4630    7.7640   -1.8250 o         1 MOL     -0.666502
    170 O24        11.8930    7.3130    0.2690 o         1 MOL     -0.666502
    171 H80        10.3270    3.5170    0.1780 hn        1 MOL      0.322327
    172 H81         9.6200    4.1110   -2.5160 h1        1 MOL      0.001818
    173 H82         9.9060    5.7530   -0.0060 hc        1 MOL      0.007085
    174 H83         9.2770    6.3450   -1.5730 hc        1 MOL      0.007085
    175 H84        11.6270    5.5830   -2.5110 hc        1 MOL      0.026078
    176 H85        11.8550    4.8500   -0.8860 hc        1 MOL      0.026078
    177 N15         6.9110    4.2180   -0.4520 n         1 MOL     -0.265046
    178 C54         7.3020    4.1160    0.9350 c3        1 MOL     -0.041593
    179 H86         7.4300    5.1160    1.3500 h1        1 MOL      0.035976
    180 H87         6.5290    3.5880    1.4930 h1        1 MOL      0.035976
    181 H88         8.2420    3.5700    1.0090 h1        1 MOL      0.035976
    182 H89         5.9430    4.1880   -0.7380 hn        1 MOL      0.277609
    183 Ca1        -6.4840    5.0780    0.8960 Ca        1 MOL      1.616761
    184 O25        -7.4520    3.3990    3.0630 oh        1 MOL     -0.802019
    185 H90        -7.9440    2.6370    2.7590 ho        1 MOL      0.380984
    186 H91        -7.5430    3.3780    4.0090 ho        1 MOL      0.380984
@<TRIPOS>BOND
     1    1    2 1   
     2    1    4 1   
     3    1    5 1   
     4    1    6 1   
     5    2    3 2   
     6    2    7 1   
     7    7    8 1   
     8    7   15 1   
     9    8    9 1   
    10    8   11 1   
    11    8   16 1   
    12    9   10 2   
    13    9   19 1   
    14   11   12 1   
    15   11   17 1   
    16   11   18 1   
    17   12   13 1   
    18   12   14 1   
    19   19   20 1   
    20   19   28 1   
    21   20   21 1   
    22   20   23 1   
    23   20   29 1   
    24   21   22 2   
    25   21   41 1   
    26   23   24 1   
    27   23   30 1   
    28   23   31 1   
    29   24   25 1   
    30   24   32 1   
    31   24   33 1   
    32   25   26 1   
    33   25   34 1   
    34   25   35 1   
    35   26   27 1   
    36   26   36 1   
    37   26   37 1   
    38   27   38 1   
    39   27   39 1   
    40   27   40 1   
    41   41   42 1   
    42   41   49 1   
    43   42   43 1   
    44   42   45 1   
    45   42   50 1   
    46   43   44 2   
    47   43   53 1   
    48   45   46 1   
    49   45   51 1   
    50   45   52 1   
    51   46   47 1   
    52   46   48 1   
    53   53   54 1   
    54   53   57 1   
    55   54   55 1   
    56   54   58 1   
    57   54   59 1   
    58   55   56 2   
    59   55   60 1   
    60   60   61 1   
    61   60   68 1   
    62   61   62 1   
    63   61   64 1   
    64   61   69 1   
    65   62   63 2   
    66   62   72 1   
    67   64   65 1   
    68   64   70 1   
    69   64   71 1   
    70   65   66 1   
    71   65   67 1   
    72   72   73 1   
    73   72   76 1   
    74   73   74 1   
    75   73   77 1   
    76   73   78 1   
    77   74   75 2   
    78   74   79 1   
    79   79   80 1   
    80   79   86 1   
    81   80   81 1   
    82   80   83 1   
    83   80   87 1   
    84   81   82 2   
    85   81   93 1   
    86   83   84 1   
    87   83   85 1   
    88   83   88 1   
    89   84   90 1   
    90   84   91 1   
    91   84   92 1   
    92   85   89 1   
    93   93   94 1   
    94   93  101 1   
    95   94   95 1   
    96   94   97 1   
    97   94  102 1   
    98   95   96 2   
    99   95  112 1   
   100   97   98 1   
   101   97   99 1   
   102   97  103 1   
   103   98  100 1   
   104   98  104 1   
   105   98  105 1   
   106   99  106 1   
   107   99  107 1   
   108   99  108 1   
   109  100  109 1   
   110  100  110 1   
   111  100  111 1   
   112  112  113 1   
   113  112  119 1   
   114  113  114 1   
   115  113  116 1   
   116  113  120 1   
   117  114  115 2   
   118  114  126 1   
   119  116  117 1   
   120  116  118 1   
   121  116  121 1   
   122  117  123 1   
   123  117  124 1   
   124  117  125 1   
   125  118  122 1   
   126  126  127 1   
   127  126  133 1   
   128  127  128 1   
   129  127  130 1   
   130  127  134 1   
   131  128  129 2   
   132  128  140 1   
   133  130  131 1   
   134  130  132 1   
   135  130  135 1   
   136  131  137 1   
   137  131  138 1   
   138  131  139 1   
   139  132  136 1   
   140  140  141 1   
   141  140  149 1   
   142  141  142 1   
   143  141  144 1   
   144  141  150 1   
   145  142  143 2   
   146  142  162 1   
   147  144  145 1   
   148  144  151 1   
   149  144  152 1   
   150  145  146 1   
   151  145  153 1   
   152  145  154 1   
   153  146  147 1   
   154  146  155 1   
   155  146  156 1   
   156  147  148 1   
   157  147  157 1   
   158  147  158 1   
   159  148  159 1   
   160  148  160 1   
   161  148  161 1   
   162  162  163 1   
   163  162  171 1   
   164  163  164 1   
   165  163  166 1   
   166  163  172 1   
   167  164  165 2   
   168  164  177 1   
   169  166  167 1   
   170  166  173 1   
   171  166  174 1   
   172  167  168 1   
   173  167  175 1   
   174  167  176 1   
   175  168  169 1   
   176  168  170 1   
   177  177  178 1   
   178  177  182 1   
   179  178  179 1   
   180  178  180 1   
   181  178  181 1   
   182  184  185 1   
   183  184  186 1   
@<TRIPOS>SUBSTRUCTURE
     1 MOL         1 TEMP              0 ****  ****    0 ROOT
