@<TRIPOS>MOLECULE
MOL
  192   187     1     0     0
SMALL
resp


@<TRIPOS>ATOM
      1 C1          0.3420    7.6370    3.1750 c3        1 MOL     -0.376426
      2 C2         -0.2130    6.3960    2.4480 c         1 MOL      0.708219
      3 O1         -0.6750    5.5170    3.1580 o         1 MOL     -0.586669
      4 H1          0.0120    7.6260    4.2140 hc        1 MOL      0.091821
      5 H2          1.4310    7.6210    3.1410 hc        1 MOL      0.091821
      6 H3         -0.0250    8.5390    2.6870 hc        1 MOL      0.091821
      7 N1         -0.2180    6.3230    1.1270 n         1 MOL     -0.571934
      8 C3         -0.5210    5.1490    0.3430 c3        1 MOL      0.060314
      9 C4          0.7260    4.2200   -0.0320 c         1 MOL      0.504350
     10 O2          0.5320    3.3530   -0.8740 o         1 MOL     -0.494309
     11 C5         -1.2230    5.7030   -0.8990 c3        1 MOL     -0.155517
     12 C6         -0.3760    6.6040   -1.7530 c         1 MOL      0.734034
     13 O3          0.4180    7.4280   -1.2880 o         1 MOL     -0.715608
     14 O4         -0.4650    6.4600   -3.0320 o         1 MOL     -0.715608
     15 H4         -0.0880    7.1940    0.6400 hn        1 MOL      0.313536
     16 H5         -1.2650    4.5300    0.8400 h1        1 MOL      0.106582
     17 H6         -2.0030    6.3710   -0.5420 hc        1 MOL      0.045686
     18 H7         -1.6890    4.8870   -1.4480 hc        1 MOL      0.045686
     19 N2          1.9130    4.3080    0.6610 n         1 MOL     -0.476532
     20 C7          3.1500    3.7060    0.1490 c3        1 MOL      0.216525
     21 C8          3.6950    2.7370    1.1940 c         1 MOL      0.399247
     22 O5          3.9530    3.1620    2.3210 o         1 MOL     -0.529126
     23 C9          4.1800    4.8200   -0.1420 c3        1 MOL     -0.195733
     24 C10         3.6570    5.8750   -1.1830 c3        1 MOL     -0.009409
     25 C11         3.1680    5.2880   -2.4950 c3        1 MOL      0.021664
     26 C12         3.0780    6.3350   -3.6640 c3        1 MOL     -0.066744
     27 N3          2.1680    7.4570   -3.3800 n4        1 MOL     -0.224673
     28 H8          1.9970    5.0000    1.3910 hn        1 MOL      0.303715
     29 H9          2.9220    3.1530   -0.7730 h1        1 MOL      0.026551
     30 H10         4.9800    4.2910   -0.6670 hc        1 MOL      0.067114
     31 H11         4.5200    5.3820    0.7190 hc        1 MOL      0.067114
     32 H12         4.4750    6.5660   -1.4090 hc        1 MOL      0.000176
     33 H13         2.8590    6.4890   -0.7860 hc        1 MOL      0.000176
     34 H14         2.2110    4.8050   -2.3110 hc        1 MOL      0.048125
     35 H15         3.9470    4.5760   -2.7730 hc        1 MOL      0.048125
     36 H16         2.6860    5.8010   -4.5280 hx        1 MOL      0.067863
     37 H17         4.0570    6.7690   -3.8520 hx        1 MOL      0.067863
     38 H18         2.1940    8.2420   -4.0130 hn        1 MOL      0.279827
     39 H19         1.2820    6.9790   -3.3660 hn        1 MOL      0.279827
     40 H20         2.4220    7.7830   -2.4580 hn        1 MOL      0.279827
     41 N4          3.9160    1.4440    0.9400 n         1 MOL     -0.100424
     42 C13         3.8240    0.6900   -0.3470 c3        1 MOL     -0.145104
     43 C14         4.3750    1.4310   -1.6210 c         1 MOL      0.453833
     44 O6          3.6890    1.6560   -2.6390 o         1 MOL     -0.557495
     45 C15         2.4080    0.1560   -0.5470 c3        1 MOL      0.058526
     46 C16         1.7330   -0.3990    0.6960 c         1 MOL      0.619717
     47 O7          2.3710   -1.0180    1.5950 o         1 MOL     -0.722375
     48 O8          0.4640   -0.4620    0.6960 o         1 MOL     -0.722375
     49 H21         4.3460    0.9300    1.6950 hn        1 MOL      0.154934
     50 H22         4.4870   -0.1650   -0.2270 h1        1 MOL      0.121524
     51 H23         2.3600   -0.6580   -1.2680 hc        1 MOL      0.027891
     52 H24         1.7630    0.9300   -0.9770 hc        1 MOL      0.027891
     53 N5          5.6450    1.8740   -1.6470 n         1 MOL     -0.310985
     54 C17         6.7710    1.7720   -0.7160 c3        1 MOL      0.105448
     55 C18         7.7660    0.6370   -0.9960 c         1 MOL      0.469289
     56 O9          7.8420    0.1670   -2.1200 o         1 MOL     -0.538128
     57 H25         5.8780    2.2780   -2.5450 hn        1 MOL      0.260843
     58 H26         6.4070    1.6580    0.3060 h1        1 MOL      0.008846
     59 H27         7.2710    2.7380   -0.6280 h1        1 MOL      0.008846
     60 N6          8.4460    0.0530   -0.0140 n         1 MOL     -0.453129
     61 C19         8.2110    0.2950    1.4260 c3        1 MOL      0.029783
     62 C20         6.9760   -0.5670    1.8590 c         1 MOL      0.339280
     63 O10         6.0580    0.0510    2.4680 o         1 MOL     -0.419527
     64 C21         9.4500   -0.1670    2.2180 c3        1 MOL     -0.185692
     65 C22         9.4070    0.0930    3.7170 c         1 MOL      0.673309
     66 O11         8.5900   -0.5490    4.4120 o         1 MOL     -0.632809
     67 O12        10.1510    0.9410    4.2790 o         1 MOL     -0.632809
     68 H28         9.1060   -0.7080   -0.1150 hn        1 MOL      0.303039
     69 H29         8.0690    1.3370    1.7070 h1        1 MOL      0.132457
     70 H30        10.3600    0.3190    1.8600 hc        1 MOL      0.029976
     71 H31         9.5830   -1.2520    2.1360 hc        1 MOL      0.029976
     72 N7          6.9510   -1.8460    1.4430 n         1 MOL     -0.239709
     73 C23         5.8940   -2.8170    1.6530 c3        1 MOL     -0.228689
     74 C24         5.3290   -3.4090    0.3160 c         1 MOL      0.568430
     75 O13         5.9270   -3.3860   -0.7560 o         1 MOL     -0.500509
     76 H32         7.7070   -2.1390    0.8320 hn        1 MOL      0.253665
     77 H33         5.1710   -2.4280    2.3730 h1        1 MOL      0.139959
     78 H34         6.4330   -3.6700    2.0690 h1        1 MOL      0.139959
     79 N8          4.1160   -3.9600    0.4310 n         1 MOL     -0.508968
     80 C25         3.4190   -4.7940   -0.5260 c3        1 MOL      0.115656
     81 C26         2.1960   -4.0920   -0.8980 c         1 MOL      0.885977
     82 O14         1.3770   -3.6040   -0.1230 o         1 MOL     -0.808793
     83 C27         3.1900   -6.1930   -0.0470 c3        1 MOL      0.438571
     84 C28         2.4320   -7.1490   -1.0740 c3        1 MOL     -0.334226
     85 O15         2.5930   -6.3300    1.2220 oh        1 MOL     -0.704128
     86 H35         3.6520   -3.9850    1.3360 hn        1 MOL      0.172111
     87 H36         4.0540   -4.9490   -1.3870 h1        1 MOL      0.040943
     88 H37         4.2330   -6.4930    0.0570 h1        1 MOL     -0.026324
     89 H38         3.2440   -5.9180    1.7950 ho        1 MOL      0.410634
     90 H39         2.9530   -7.0810   -2.0350 hc        1 MOL      0.098200
     91 H40         2.3760   -8.1980   -0.7760 hc        1 MOL      0.098200
     92 H41         1.4000   -6.8660   -1.2820 hc        1 MOL      0.098200
     93 N9          1.9690   -3.8330   -2.2360 n         1 MOL     -0.683532
     94 C29         0.8400   -2.9650   -2.7440 c3        1 MOL     -0.045214
     95 C30        -0.4810   -3.8090   -2.8300 c         1 MOL      0.654010
     96 O16        -0.4750   -4.8300   -3.4590 o         1 MOL     -0.575433
     97 C31         1.2680   -2.3640   -4.1230 c3        1 MOL      0.164847
     98 C32         2.5730   -1.5990   -4.0290 c3        1 MOL      0.117362
     99 C33         0.1600   -1.5910   -4.8710 c3        1 MOL     -0.462469
    100 C34         3.1810   -1.3920   -5.4230 c3        1 MOL     -0.243133
    101 H42         2.5680   -4.2240   -2.9460 hn        1 MOL      0.311168
    102 H43         0.6520   -2.1280   -2.0810 h1        1 MOL      0.050762
    103 H44         1.3990   -3.2580   -4.7310 hc        1 MOL      0.009419
    104 H45         3.2840   -2.1520   -3.4070 hc        1 MOL      0.011827
    105 H46         2.3590   -0.6630   -3.5040 hc        1 MOL      0.011827
    106 H47         0.5200   -1.3590   -5.8740 hc        1 MOL      0.124367
    107 H48        -0.8170   -2.0540   -4.9480 hc        1 MOL      0.124367
    108 H49         0.0540   -0.6290   -4.3680 hc        1 MOL      0.124367
    109 H50         3.1060   -2.3490   -5.9330 hc        1 MOL      0.057489
    110 H51         2.6320   -0.6200   -5.9520 hc        1 MOL      0.057489
    111 H52         4.2090   -1.0620   -5.2940 hc        1 MOL      0.057489
    112 N10        -1.5610   -3.2580   -2.2810 n         1 MOL     -0.482758
    113 C35        -2.8960   -3.8670   -2.5780 c3        1 MOL     -0.046627
    114 C36        -3.9750   -2.8140   -2.8810 c         1 MOL      0.398539
    115 O17        -5.0500   -3.0780   -3.3620 o         1 MOL     -0.491646
    116 C37        -3.3600   -4.8490   -1.5030 c3        1 MOL      0.521751
    117 C38        -4.4990   -5.7320   -1.9260 c3        1 MOL     -0.382909
    118 O18        -3.7370   -4.3160   -0.2750 oh        1 MOL     -0.555485
    119 H53        -1.4450   -2.4340   -1.7230 hn        1 MOL      0.337563
    120 H54        -2.7750   -4.4590   -3.4800 h1        1 MOL      0.128203
    121 H55        -2.5800   -5.5810   -1.3200 h1        1 MOL     -0.028700
    122 H56        -3.0020   -3.8010    0.0760 ho        1 MOL      0.211791
    123 H57        -4.7040   -6.5160   -1.1990 hc        1 MOL      0.084478
    124 H58        -5.4100   -5.1220   -1.9860 hc        1 MOL      0.084478
    125 H59        -4.1710   -6.1080   -2.8950 hc        1 MOL      0.084478
    126 N11        -3.7110   -1.5250   -2.5180 n         1 MOL     -0.362169
    127 C39        -4.4590   -0.2290   -2.5850 c3        1 MOL     -0.040105
    128 C40        -5.7150   -0.3040   -1.6560 c         1 MOL      0.515722
    129 O19        -6.1420   -1.3740   -1.2230 o         1 MOL     -0.410543
    130 C41        -4.7680    0.1270   -4.1090 c3        1 MOL      0.511372
    131 C42        -3.5430   -0.1680   -4.9620 c3        1 MOL     -0.377008
    132 O20        -5.2380    1.4150   -4.1150 oh        1 MOL     -0.670610
    133 H60        -2.7440   -1.3780   -2.2800 hn        1 MOL      0.213645
    134 H61        -3.8020    0.5430   -2.1840 h1        1 MOL      0.112317
    135 H62        -5.5900   -0.5120   -4.4410 h1        1 MOL     -0.024373
    136 H63        -5.8240    1.5900   -4.8570 ho        1 MOL      0.399618
    137 H64        -3.7750    0.1690   -5.9700 hc        1 MOL      0.090258
    138 H65        -2.6740    0.3320   -4.5180 hc        1 MOL      0.090258
    139 H66        -3.5020   -1.2580   -5.0060 hc        1 MOL      0.090258
    140 N12        -6.3200    0.8480   -1.3480 n         1 MOL     -0.586647
    141 C43        -7.5120    0.9290   -0.4060 c3        1 MOL      0.143438
    142 C44        -7.3730    0.2810    0.9600 c         1 MOL      0.523351
    143 O21        -8.2970   -0.4190    1.3880 o         1 MOL     -0.571326
    144 C45        -7.8620    2.4560   -0.2420 c3        1 MOL     -0.018867
    145 C46        -9.0900    2.7720    0.6200 c3        1 MOL     -0.140050
    146 C47       -10.2570    1.8780    0.2920 c3        1 MOL      0.277384
    147 C48       -11.3590    2.2450    1.2970 c3        1 MOL      0.033457
    148 N13       -12.5410    1.4370    0.9570 n4        1 MOL     -0.398024
    149 H67        -5.8790    1.7290   -1.5420 hn        1 MOL      0.300546
    150 H68        -8.3280    0.3900   -0.8780 h1        1 MOL      0.065190
    151 H69        -7.9120    2.8810   -1.2400 hc        1 MOL      0.023844
    152 H70        -7.0270    2.9020    0.3050 hc        1 MOL      0.023844
    153 H71        -9.3380    3.8210    0.4800 hc        1 MOL      0.047031
    154 H72        -8.8430    2.6630    1.6830 hc        1 MOL      0.047031
    155 H73        -9.9290    0.8390    0.3430 hc        1 MOL     -0.064138
    156 H74       -10.5870    2.1010   -0.7240 hc        1 MOL     -0.064138
    157 H75       -11.5090    3.3050    1.1300 hx        1 MOL      0.060183
    158 H76       -10.9860    2.1280    2.3190 hx        1 MOL      0.060183
    159 H77       -13.3210    1.7100    1.5470 hn        1 MOL      0.290072
    160 H78       -12.7020    1.6160   -0.0240 hn        1 MOL      0.290072
    161 H79       -12.3840    0.4960    1.2710 hn        1 MOL      0.290072
    162 N14        -6.2270    0.3670    1.5970 n         1 MOL     -0.312000
    163 C49        -5.9010   -0.5200    2.7050 c3        1 MOL     -0.346829
    164 C50        -6.3880    0.0740    4.0710 c         1 MOL      0.569770
    165 O22        -6.2780    1.2590    4.3820 o         1 MOL     -0.509312
    166 C51        -4.4070   -0.7820    2.7170 c3        1 MOL      0.026410
    167 C52        -3.9130   -1.8140    1.7210 c3        1 MOL     -0.026909
    168 C53        -2.3860   -2.0080    1.8390 c         1 MOL      0.634507
    169 O23        -1.9520   -3.0490    1.3260 o         1 MOL     -0.666341
    170 O24        -1.6570   -1.2750    2.4820 o         1 MOL     -0.666341
    171 H80        -5.5000    1.0030    1.2720 hn        1 MOL      0.298824
    172 H81        -6.3980   -1.4670    2.5060 h1        1 MOL      0.173814
    173 H82        -4.1570   -1.2420    3.6720 hc        1 MOL      0.037537
    174 H83        -3.8460    0.1420    2.6020 hc        1 MOL      0.037537
    175 H84        -4.1690   -1.3880    0.7520 hc        1 MOL      0.032550
    176 H85        -4.4440   -2.7650    1.7610 hc        1 MOL      0.032550
    177 N15        -7.0240   -0.8160    4.8610 n         1 MOL     -0.318949
    178 C54        -7.5910   -0.5320    6.1890 c3        1 MOL     -0.204953
    179 H86        -8.0890    0.4380    6.1710 h1        1 MOL      0.102843
    180 H87        -8.3130   -1.3060    6.4500 h1        1 MOL      0.102843
    181 H88        -6.7920   -0.5150    6.9300 h1        1 MOL      0.102843
    182 H89        -7.0580   -1.7910    4.5900 hn        1 MOL      0.262102
    183 Ca1         0.5240   -2.8060    2.2920 Ca        1 MOL      1.781385
    184 O25        -0.5010   -4.0790    4.3550 oh        1 MOL     -0.844649
    185 H90        -0.0360   -4.8680    4.6160 ho        1 MOL      0.415953
    186 H91        -1.4290   -4.2820    4.5130 ho        1 MOL      0.415953
    187 O26         0.1450   -5.4580    1.6180 oh        1 MOL     -0.844649
    188 H92        -0.4780   -6.1790    1.6850 ho        1 MOL      0.415953
    189 H93         0.9890   -5.8830    1.4620 ho        1 MOL      0.415953
    190 O27         1.0250   -1.2440    4.4740 oh        1 MOL     -0.844649
    191 H94         0.4090   -0.5920    4.7980 ho        1 MOL      0.415953
    192 H95         1.8920   -0.9230    4.7280 ho        1 MOL      0.415953
@<TRIPOS>BOND
     1    1    2 1   
     2    1    4 1   
     3    1    5 1   
     4    1    6 1   
     5    2    3 2   
     6    2    7 1   
     7    7    8 1   
     8    7   15 1   
     9    8    9 1   
    10    8   11 1   
    11    8   16 1   
    12    9   10 2   
    13    9   19 1   
    14   11   12 1   
    15   11   17 1   
    16   11   18 1   
    17   12   13 1   
    18   12   14 1   
    19   19   20 1   
    20   19   28 1   
    21   20   21 1   
    22   20   23 1   
    23   20   29 1   
    24   21   22 2   
    25   21   41 1   
    26   23   24 1   
    27   23   30 1   
    28   23   31 1   
    29   24   25 1   
    30   24   32 1   
    31   24   33 1   
    32   25   26 1   
    33   25   34 1   
    34   25   35 1   
    35   26   27 1   
    36   26   36 1   
    37   26   37 1   
    38   27   38 1   
    39   27   39 1   
    40   27   40 1   
    41   41   42 1   
    42   41   49 1   
    43   42   43 1   
    44   42   45 1   
    45   42   50 1   
    46   43   44 2   
    47   43   53 1   
    48   45   46 1   
    49   45   51 1   
    50   45   52 1   
    51   46   47 1   
    52   46   48 1   
    53   53   54 1   
    54   53   57 1   
    55   54   55 1   
    56   54   58 1   
    57   54   59 1   
    58   55   56 2   
    59   55   60 1   
    60   60   61 1   
    61   60   68 1   
    62   61   62 1   
    63   61   64 1   
    64   61   69 1   
    65   62   63 2   
    66   62   72 1   
    67   64   65 1   
    68   64   70 1   
    69   64   71 1   
    70   65   66 1   
    71   65   67 1   
    72   72   73 1   
    73   72   76 1   
    74   73   74 1   
    75   73   77 1   
    76   73   78 1   
    77   74   75 2   
    78   74   79 1   
    79   79   80 1   
    80   79   86 1   
    81   80   81 1   
    82   80   83 1   
    83   80   87 1   
    84   81   82 2   
    85   81   93 1   
    86   83   84 1   
    87   83   85 1   
    88   83   88 1   
    89   84   90 1   
    90   84   91 1   
    91   84   92 1   
    92   85   89 1   
    93   93   94 1   
    94   93  101 1   
    95   94   95 1   
    96   94   97 1   
    97   94  102 1   
    98   95   96 2   
    99   95  112 1   
   100   97   98 1   
   101   97   99 1   
   102   97  103 1   
   103   98  100 1   
   104   98  104 1   
   105   98  105 1   
   106   99  106 1   
   107   99  107 1   
   108   99  108 1   
   109  100  109 1   
   110  100  110 1   
   111  100  111 1   
   112  112  113 1   
   113  112  119 1   
   114  113  114 1   
   115  113  116 1   
   116  113  120 1   
   117  114  115 2   
   118  114  126 1   
   119  116  117 1   
   120  116  118 1   
   121  116  121 1   
   122  117  123 1   
   123  117  124 1   
   124  117  125 1   
   125  118  122 1   
   126  126  127 1   
   127  126  133 1   
   128  127  128 1   
   129  127  130 1   
   130  127  134 1   
   131  128  129 2   
   132  128  140 1   
   133  130  131 1   
   134  130  132 1   
   135  130  135 1   
   136  131  137 1   
   137  131  138 1   
   138  131  139 1   
   139  132  136 1   
   140  140  141 1   
   141  140  149 1   
   142  141  142 1   
   143  141  144 1   
   144  141  150 1   
   145  142  143 2   
   146  142  162 1   
   147  144  145 1   
   148  144  151 1   
   149  144  152 1   
   150  145  146 1   
   151  145  153 1   
   152  145  154 1   
   153  146  147 1   
   154  146  155 1   
   155  146  156 1   
   156  147  148 1   
   157  147  157 1   
   158  147  158 1   
   159  148  159 1   
   160  148  160 1   
   161  148  161 1   
   162  162  163 1   
   163  162  171 1   
   164  163  164 1   
   165  163  166 1   
   166  163  172 1   
   167  164  165 2   
   168  164  177 1   
   169  166  167 1   
   170  166  173 1   
   171  166  174 1   
   172  167  168 1   
   173  167  175 1   
   174  167  176 1   
   175  168  169 1   
   176  168  170 1   
   177  177  178 1   
   178  177  182 1   
   179  178  179 1   
   180  178  180 1   
   181  178  181 1   
   182  184  185 1   
   183  184  186 1   
   184  187  188 1   
   185  187  189 1   
   186  190  191 1   
   187  190  192 1   
@<TRIPOS>SUBSTRUCTURE
     1 MOL         1 TEMP              0 ****  ****    0 ROOT
