@<TRIPOS>MOLECULE
MOL
  188   182     1     0     0
SMALL
resp


@<TRIPOS>ATOM
      1 C1          4.9150    0.5000    5.6900 c3        1 MOL     -0.359427
      2 C2          3.9780    0.4400    4.4590 c         1 MOL      0.723973
      3 O1          2.7550    0.3920    4.5780 o         1 MOL     -0.581631
      4 H1          5.4360   -0.4520    5.7950 hc        1 MOL      0.094003
      5 H2          5.6430    1.3000    5.5540 hc        1 MOL      0.094003
      6 H3          4.3260    0.6920    6.5870 hc        1 MOL      0.094003
      7 N1          4.5880    0.2280    3.2590 n         1 MOL     -0.712901
      8 C3          3.8620    0.0810    1.9990 c3        1 MOL      0.096022
      9 C4          4.2420   -1.1300    1.1480 c         1 MOL      0.243885
     10 O2          3.5860   -1.4640    0.1600 o         1 MOL     -0.335263
     11 C5          3.9550    1.3990    1.1810 c3        1 MOL     -0.146145
     12 C6          5.3840    1.7520    0.7500 c         1 MOL      0.718378
     13 O3          5.6060    2.7610    0.0690 o         1 MOL     -0.636706
     14 O4          6.3390    1.0270    0.9920 o         1 MOL     -0.636706
     15 H4          5.5950    0.1490    3.2330 hn        1 MOL      0.339214
     16 H5          2.8080   -0.0650    2.2600 h1        1 MOL      0.223048
     17 H6          3.4740    2.1280    1.8260 hc        1 MOL      0.043353
     18 H7          3.3120    1.3040    0.3000 hc        1 MOL      0.043353
     19 N2          5.3410   -1.8900    1.4580 n         1 MOL     -0.203017
     20 C7          5.5780   -3.3090    0.9490 c3        1 MOL     -0.110839
     21 C8          6.0830   -3.1800   -0.5430 c         1 MOL      0.347652
     22 O5          7.2810   -3.0300   -0.8760 o         1 MOL     -0.479349
     23 C9          6.5450   -4.0580    1.7770 c3        1 MOL      0.085855
     24 C10         6.4070   -3.8700    3.3240 c3        1 MOL     -0.127438
     25 C11         7.4940   -4.6670    4.0510 c3        1 MOL     -0.145471
     26 C12         7.1530   -4.9620    5.5120 c3        1 MOL      0.092324
     27 N3          8.2270   -5.5800    6.1910 n4        1 MOL     -0.256367
     28 H8          5.9160   -1.5640    2.2320 hn        1 MOL      0.198108
     29 H9          4.5790   -3.7580    0.9320 h1        1 MOL      0.044036
     30 H10         7.5480   -3.7120    1.5340 hc        1 MOL      0.034799
     31 H11         6.7070   -5.0960    1.4850 hc        1 MOL      0.034799
     32 H12         5.4190   -4.2620    3.5430 hc        1 MOL      0.059814
     33 H13         6.5560   -2.8150    3.5620 hc        1 MOL      0.059814
     34 H14         8.3960   -4.0470    4.0160 hc        1 MOL      0.086332
     35 H15         7.5590   -5.6390    3.5690 hc        1 MOL      0.086332
     36 H16         6.2890   -5.6180    5.6140 hx        1 MOL      0.058979
     37 H17         7.0010   -4.0090    6.0270 hx        1 MOL      0.058979
     38 H18         7.9710   -5.9380    7.0980 hn        1 MOL      0.267434
     39 H19         8.5840   -6.4360    5.7950 hn        1 MOL      0.267434
     40 H20         9.0020   -4.9400    6.3200 hn        1 MOL      0.267434
     41 N4          5.1100   -3.4780   -1.3920 n         1 MOL     -0.285978
     42 C13         5.2080   -3.4280   -2.8840 c3        1 MOL     -0.018881
     43 C14         4.8960   -2.0170   -3.4330 c         1 MOL      0.371917
     44 O6          5.0500   -1.7910   -4.6170 o         1 MOL     -0.514699
     45 C15         4.2900   -4.4910   -3.4680 c3        1 MOL     -0.131913
     46 C16         2.7370   -4.3440   -3.1880 c         1 MOL      0.807376
     47 O7          2.3680   -3.3150   -2.6080 o         1 MOL     -0.734799
     48 O8          1.9040   -5.2410   -3.6360 o         1 MOL     -0.734799
     49 H21         4.2130   -3.7130   -0.9870 hn        1 MOL      0.214647
     50 H22         6.2100   -3.7040   -3.1870 h1        1 MOL      0.136784
     51 H23         4.5080   -5.4880   -3.0950 hc        1 MOL      0.030847
     52 H24         4.3790   -4.5730   -4.5540 hc        1 MOL      0.030847
     53 N5          4.6920   -0.9730   -2.6070 n         1 MOL     -0.107824
     54 C17         4.6210    0.4050   -3.0370 c3        1 MOL     -0.048245
     55 C18         5.9980    1.1420   -3.1660 c         1 MOL      0.481797
     56 O9          7.0500    0.5130   -3.3160 o         1 MOL     -0.526080
     57 H25         4.7270   -1.2750   -1.6430 hn        1 MOL      0.233380
     58 H26         4.0330    0.9150   -2.2740 h1        1 MOL      0.064967
     59 H27         4.1030    0.3370   -3.9880 h1        1 MOL      0.064967
     60 N6          6.1260    2.4750   -3.0500 n         1 MOL     -0.330227
     61 C19         5.0810    3.5270   -3.1380 c3        1 MOL      0.183853
     62 C20         5.1550    4.7500   -2.2570 c         1 MOL      0.545202
     63 O10         6.2550    5.3270   -2.2700 o         1 MOL     -0.546328
     64 C21         4.7920    3.9120   -4.6160 c3        1 MOL     -0.461050
     65 C22         3.6230    4.9100   -4.7990 c         1 MOL      0.738465
     66 N7          3.7650    6.0650   -5.3710 n         1 MOL     -0.808962
     67 O11         2.5680    4.6860   -4.2570 o         1 MOL     -0.596498
     68 H28         7.0560    2.8730   -3.0880 hn        1 MOL      0.270908
     69 H29         4.2140    3.0020   -2.7330 h1        1 MOL     -0.012699
     70 H30         4.6290    2.9750   -5.1470 hc        1 MOL      0.123622
     71 H31         5.6790    4.3130   -5.0980 hc        1 MOL      0.123622
     72 H32         4.5570    6.3390   -5.9310 hn        1 MOL      0.372003
     73 H33         2.9560    6.6580   -5.3140 hn        1 MOL      0.372003
     74 N8          4.1200    5.1190   -1.4520 n         1 MOL     -0.388714
     75 C23         2.8830    4.4030   -1.0900 c3        1 MOL     -0.105683
     76 C24         1.9600    4.9630   -0.0430 c         1 MOL      0.689256
     77 O12         2.2520    5.7310    0.8290 o         1 MOL     -0.540115
     78 H34         4.3700    6.0050   -1.0420 hn        1 MOL      0.266107
     79 H35         3.0690    3.3690   -0.8020 h1        1 MOL      0.070160
     80 H36         2.2250    4.3240   -1.9480 h1        1 MOL      0.070160
     81 N9          0.7640    4.4080   -0.1010 n         1 MOL     -0.588621
     82 C25        -0.3900    4.6750    0.8130 c3        1 MOL      0.090223
     83 C26        -1.3560    3.4480    0.6640 c         1 MOL      0.534936
     84 O13        -1.2130    2.4970   -0.0550 o         1 MOL     -0.508633
     85 C27        -1.0350    6.0600    0.4660 c3        1 MOL     -0.167196
     86 C28        -1.9940    6.6300    1.5090 ca        1 MOL      0.016542
     87 C29        -3.2690    7.0560    1.1960 ca        1 MOL     -0.067377
     88 C30        -1.5950    6.6020    2.8450 ca        1 MOL     -0.067377
     89 C31        -4.1650    7.3970    2.2890 ca        1 MOL     -0.343275
     90 C32        -2.3730    7.1400    3.8830 ca        1 MOL     -0.343275
     91 C33        -3.7300    7.4780    3.6490 ca        1 MOL      0.401416
     92 O14        -4.5740    7.8130    4.6690 oh        1 MOL     -0.489356
     93 H37         0.4060    3.8360   -0.8480 hn        1 MOL      0.298148
     94 H38        -0.0090    4.6300    1.8380 h1        1 MOL      0.080330
     95 H39        -1.5870    6.0610   -0.4730 hc        1 MOL      0.097290
     96 H40        -0.2430    6.7970    0.3430 hc        1 MOL      0.097290
     97 H41        -3.6200    6.9910    0.1790 ha        1 MOL      0.124876
     98 H42        -0.5690    6.3490    3.0520 ha        1 MOL      0.124876
     99 H43        -5.2210    7.4960    2.0850 ha        1 MOL      0.163129
    100 H44        -1.9690    7.2020    4.8760 ha        1 MOL      0.163129
    101 H45        -4.0260    7.8950    5.4550 ho        1 MOL      0.364286
    102 N10        -2.5150    3.5290    1.3870 n         1 MOL     -0.273283
    103 C34        -3.5270    2.4680    1.3400 c3        1 MOL     -0.001802
    104 C35        -4.5550    2.6760    0.2450 c         1 MOL      0.600015
    105 O15        -4.7170    3.7940   -0.2820 o         1 MOL     -0.532833
    106 C36        -4.2320    2.2340    2.7470 c3        1 MOL      0.265552
    107 C37        -3.5710    1.1920    3.6100 c3        1 MOL     -0.115265
    108 C38        -4.2270    3.5750    3.5090 c3        1 MOL     -0.261894
    109 C39        -3.4880   -0.1950    3.0320 c3        1 MOL     -0.185985
    110 H46        -2.6400    4.3530    1.9520 hn        1 MOL      0.077193
    111 H47        -3.0180    1.5360    1.1030 h1        1 MOL     -0.004489
    112 H48        -5.2780    1.9380    2.6680 hc        1 MOL     -0.007481
    113 H49        -4.1380    1.1950    4.5430 hc        1 MOL      0.039313
    114 H50        -2.5240    1.5120    3.6820 hc        1 MOL      0.039313
    115 H51        -3.2470    4.0070    3.6820 hc        1 MOL      0.060283
    116 H52        -4.8180    4.2850    2.9330 hc        1 MOL      0.060283
    117 H53        -4.6910    3.4460    4.4880 hc        1 MOL      0.060283
    118 H54        -3.1490   -0.9230    3.7700 hc        1 MOL      0.054865
    119 H55        -4.3770   -0.4810    2.4770 hc        1 MOL      0.054865
    120 H56        -2.7050   -0.2140    2.2770 hc        1 MOL      0.054865
    121 N11        -5.1430    1.5980   -0.2380 n         1 MOL     -0.440585
    122 C40        -6.1300    1.6680   -1.2840 c3        1 MOL     -0.059246
    123 C41        -6.3190    0.2560   -1.9670 c         1 MOL      0.784821
    124 O16        -5.6350   -0.6630   -1.7390 o         1 MOL     -0.533835
    125 C42        -7.4940    2.1470   -0.7670 c3        1 MOL     -0.009954
    126 O17        -7.9350    1.4840    0.4590 oh        1 MOL     -0.631580
    127 H57        -4.9150    0.7330    0.2390 hn        1 MOL      0.301334
    128 H58        -5.7760    2.2970   -2.1020 h1        1 MOL      0.095333
    129 H59        -8.2320    2.0580   -1.5710 h1        1 MOL      0.070842
    130 H60        -7.3940    3.1970   -0.4830 h1        1 MOL      0.070842
    131 H61        -8.7740    1.8100    0.7760 ho        1 MOL      0.429783
    132 N12        -7.1300    0.1940   -3.0280 n         1 MOL     -0.586288
    133 C43        -7.4260   -0.9690   -3.8440 c3        1 MOL      0.082702
    134 C44        -7.7130   -2.2260   -3.0620 c         1 MOL      0.563930
    135 O18        -7.2010   -3.2950   -3.3830 o         1 MOL     -0.483447
    136 C45        -6.3420   -1.0980   -4.9610 c3        1 MOL     -0.331387
    137 H62        -7.4900    1.0970   -3.2900 hn        1 MOL      0.297500
    138 H63        -8.3700   -0.9230   -4.3610 h1        1 MOL      0.080168
    139 H64        -5.3480   -1.1430   -4.5250 hc        1 MOL      0.110410
    140 H65        -6.4200   -2.0090   -5.5460 hc        1 MOL      0.110410
    141 H66        -6.2450   -0.2460   -5.6490 hc        1 MOL      0.110410
    142 N13        -8.5310   -2.1630   -2.0200 n         1 MOL     -0.537906
    143 C46        -9.0000   -3.2630   -1.1780 c3        1 MOL      0.302210
    144 C47        -7.8140   -4.1150   -0.5790 c         1 MOL      0.401325
    145 O19        -7.8720   -5.3280   -0.5250 o         1 MOL     -0.485921
    146 C48        -9.9880   -4.0630   -1.9110 c3        1 MOL     -0.315934
    147 H67        -8.8400   -1.2260   -1.8010 hn        1 MOL      0.253284
    148 H68        -9.5240   -2.8330   -0.3300 h1        1 MOL      0.015733
    149 H69        -9.5540   -4.6250   -2.7390 hc        1 MOL      0.087141
    150 H70       -10.3750   -4.6880   -1.1050 hc        1 MOL      0.087141
    151 H71       -10.7850   -3.4430   -2.3430 hc        1 MOL      0.087141
    152 N14        -6.7050   -3.5130   -0.1950 n         1 MOL     -0.293043
    153 C49        -5.5610   -4.1610    0.3930 c3        1 MOL     -0.004376
    154 C50        -5.8500   -4.6060    1.7960 c         1 MOL      0.566112
    155 O20        -5.5320   -5.7370    2.1080 o         1 MOL     -0.525082
    156 C51        -4.2740   -3.2870    0.3250 c3        1 MOL      0.064141
    157 C52        -2.9880   -3.9490    0.8690 c3        1 MOL     -0.306780
    158 C53        -1.6700   -3.1160    0.6690 c         1 MOL      0.811305
    159 O21        -0.6210   -3.4330    1.3260 o         1 MOL     -0.789692
    160 O22        -1.5630   -2.1550   -0.1350 o         1 MOL     -0.789692
    161 H72        -6.6250   -2.5300   -0.4230 hn        1 MOL      0.149245
    162 H73        -5.3990   -5.1100   -0.1220 h1        1 MOL      0.103221
    163 H74        -4.4150   -2.3120    0.7970 hc        1 MOL      0.041216
    164 H75        -4.0570   -2.9510   -0.6950 hc        1 MOL      0.041216
    165 H76        -2.7730   -4.8450    0.2960 hc        1 MOL      0.074608
    166 H77        -3.1620   -4.2550    1.9020 hc        1 MOL      0.074608
    167 N15        -6.4400   -3.7560    2.6440 n         1 MOL     -0.359267
    168 C54        -7.1610   -4.2680    3.8280 c3        1 MOL     -0.472989
    169 H78        -6.4420   -4.6460    4.5540 h1        1 MOL      0.179668
    170 H79        -7.7420   -3.4620    4.2770 h1        1 MOL      0.179668
    171 H80        -7.8290   -5.0730    3.5270 h1        1 MOL      0.179668
    172 H81        -6.8220   -2.8930    2.2890 hn        1 MOL      0.251579
    173 Ca1         1.0910   -2.5530   -0.4190 Ca        1 MOL      1.823137
    174 O23         1.8350   -2.8100    2.2780 oh        1 MOL     -0.946233
    175 H82         2.3430   -3.3130    2.9090 ho        1 MOL      0.443966
    176 H83         0.9280   -2.9490    2.5310 ho        1 MOL      0.443966
    177 O24         1.4450   -0.4970   -2.0520 oh        1 MOL     -0.946233
    178 H84         1.1550    0.3880   -1.8510 ho        1 MOL      0.443966
    179 H85         1.4900   -0.5280   -3.0060 ho        1 MOL      0.443966
    180 O25         2.3370   -4.8780    0.0180 oh        1 MOL     -0.946233
    181 H86         1.6810   -5.2910    0.5720 ho        1 MOL      0.443966
    182 H87         3.0390   -5.5320   -0.0560 ho        1 MOL      0.443966
    183 O26        -0.1690   -4.1980   -1.9920 oh        1 MOL     -0.946233
    184 H88         0.4540   -4.6380   -2.5770 ho        1 MOL      0.443966
    185 H89        -1.0260   -4.4320   -2.3410 ho        1 MOL      0.443966
    186 O27         0.4560   -0.0690    0.7800 oh        1 MOL     -0.946233
    187 H90         0.1850    0.4740    1.5190 ho        1 MOL      0.443966
    188 H91        -0.3060   -0.0900    0.2070 ho        1 MOL      0.443966
@<TRIPOS>BOND
     1    1    2 1   
     2    1    4 1   
     3    1    5 1   
     4    1    6 1   
     5    2    3 2   
     6    2    7 1   
     7    7    8 1   
     8    7   15 1   
     9    8    9 1   
    10    8   11 1   
    11    8   16 1   
    12    9   10 2   
    13    9   19 1   
    14   11   12 1   
    15   11   17 1   
    16   11   18 1   
    17   12   13 1   
    18   12   14 1   
    19   19   20 1   
    20   19   28 1   
    21   20   21 1   
    22   20   23 1   
    23   20   29 1   
    24   21   22 2   
    25   21   41 1   
    26   23   24 1   
    27   23   30 1   
    28   23   31 1   
    29   24   25 1   
    30   24   32 1   
    31   24   33 1   
    32   25   26 1   
    33   25   34 1   
    34   25   35 1   
    35   26   27 1   
    36   26   36 1   
    37   26   37 1   
    38   27   38 1   
    39   27   39 1   
    40   27   40 1   
    41   41   42 1   
    42   41   49 1   
    43   42   43 1   
    44   42   45 1   
    45   42   50 1   
    46   43   44 2   
    47   43   53 1   
    48   45   46 1   
    49   45   51 1   
    50   45   52 1   
    51   46   47 1   
    52   46   48 1   
    53   53   54 1   
    54   53   57 1   
    55   54   55 1   
    56   54   58 1   
    57   54   59 1   
    58   55   56 2   
    59   55   60 1   
    60   60   61 1   
    61   60   68 1   
    62   61   62 1   
    63   61   64 1   
    64   61   69 1   
    65   62   63 2   
    66   62   74 1   
    67   64   65 1   
    68   64   70 1   
    69   64   71 1   
    70   65   66 1   
    71   65   67 2   
    72   66   72 1   
    73   66   73 1   
    74   74   75 1   
    75   74   78 1   
    76   75   76 1   
    77   75   79 1   
    78   75   80 1   
    79   76   77 2   
    80   76   81 1   
    81   81   82 1   
    82   81   93 1   
    83   82   83 1   
    84   82   85 1   
    85   82   94 1   
    86   83   84 2   
    87   83  102 1   
    88   85   86 1   
    89   85   95 1   
    90   85   96 1   
    91   86   87 ar  
    92   86   88 ar  
    93   87   89 ar  
    94   87   97 1   
    95   88   90 ar  
    96   88   98 1   
    97   89   91 ar  
    98   89   99 1   
    99   90   91 ar  
   100   90  100 1   
   101   91   92 1   
   102   92  101 1   
   103  102  103 1   
   104  102  110 1   
   105  103  104 1   
   106  103  106 1   
   107  103  111 1   
   108  104  105 2   
   109  104  121 1   
   110  106  107 1   
   111  106  108 1   
   112  106  112 1   
   113  107  109 1   
   114  107  113 1   
   115  107  114 1   
   116  108  115 1   
   117  108  116 1   
   118  108  117 1   
   119  109  118 1   
   120  109  119 1   
   121  109  120 1   
   122  121  122 1   
   123  121  127 1   
   124  122  123 1   
   125  122  125 1   
   126  122  128 1   
   127  123  124 2   
   128  123  132 1   
   129  125  126 1   
   130  125  129 1   
   131  125  130 1   
   132  126  131 1   
   133  132  133 1   
   134  132  137 1   
   135  133  134 1   
   136  133  136 1   
   137  133  138 1   
   138  134  135 2   
   139  134  142 1   
   140  136  139 1   
   141  136  140 1   
   142  136  141 1   
   143  142  143 1   
   144  142  147 1   
   145  143  144 1   
   146  143  146 1   
   147  143  148 1   
   148  144  145 2   
   149  144  152 1   
   150  146  149 1   
   151  146  150 1   
   152  146  151 1   
   153  152  153 1   
   154  152  161 1   
   155  153  154 1   
   156  153  156 1   
   157  153  162 1   
   158  154  155 2   
   159  154  167 1   
   160  156  157 1   
   161  156  163 1   
   162  156  164 1   
   163  157  158 1   
   164  157  165 1   
   165  157  166 1   
   166  158  159 1   
   167  158  160 1   
   168  167  168 1   
   169  167  172 1   
   170  168  169 1   
   171  168  170 1   
   172  168  171 1   
   173  174  175 1   
   174  174  176 1   
   175  177  178 1   
   176  177  179 1   
   177  180  181 1   
   178  180  182 1   
   179  183  184 1   
   180  183  185 1   
   181  186  187 1   
   182  186  188 1   
@<TRIPOS>SUBSTRUCTURE
     1 MOL         1 TEMP              0 ****  ****    0 ROOT
