@<TRIPOS>MOLECULE
MOL
  181   177     1     0     0
SMALL
resp


@<TRIPOS>ATOM
      1 C1          3.3850   -3.0590    3.3690 c3        1 MOL     -0.473821
      2 C2          4.5840   -2.1200    3.0350 c         1 MOL      0.694292
      3 O1          4.4750   -1.1840    2.2800 o         1 MOL     -0.532758
      4 H1          2.5040   -2.4570    3.5920 hc        1 MOL      0.114337
      5 H2          3.1780   -3.7020    2.5140 hc        1 MOL      0.114337
      6 H3          3.6330   -3.6740    4.2340 hc        1 MOL      0.114337
      7 N1          5.6880   -2.3190    3.6870 n         1 MOL     -0.425167
      8 C3          6.9510   -1.5380    3.5850 c3        1 MOL     -0.023087
      9 C4          7.4450   -1.4230    2.1590 c         1 MOL      0.671147
     10 O2          7.6090   -2.4480    1.5190 o         1 MOL     -0.569565
     11 C5          7.9910   -1.8700    4.7080 c3        1 MOL     -0.182876
     12 C6          7.5000   -1.6880    6.1830 c         1 MOL      0.720179
     13 O3          6.8550   -0.6570    6.3930 o         1 MOL     -0.727080
     14 O4          7.9130   -2.5020    7.0600 o         1 MOL     -0.727080
     15 H4          5.6500   -2.9570    4.4780 hn        1 MOL      0.269519
     16 H5          6.6510   -0.4950    3.6800 h1        1 MOL      0.047208
     17 H6          8.8940   -1.2960    4.5270 hc        1 MOL      0.027013
     18 H7          8.4640   -2.8410    4.5950 hc        1 MOL      0.027013
     19 N2          7.6620   -0.2160    1.6150 n         1 MOL     -0.659445
     20 C7          7.8430    0.0980    0.2000 c3        1 MOL      0.362581
     21 C8          6.4840    0.2920   -0.5380 c         1 MOL      0.659267
     22 O5          5.5120    0.7490    0.0650 o         1 MOL     -0.634946
     23 C9          8.5450    1.3970    0.1290 c3        1 MOL     -0.225211
     24 H8          7.4350    0.5990    2.1730 hn        1 MOL      0.312895
     25 H9          8.4310   -0.6580   -0.3370 h1        1 MOL      0.000599
     26 H10         7.8990    2.1960    0.4960 hc        1 MOL      0.032241
     27 H11         9.4550    1.2820    0.7200 hc        1 MOL      0.032241
     28 H12         8.7330    1.6230   -0.9170 hc        1 MOL      0.032241
     29 N3          6.4150    0.0470   -1.8150 n         1 MOL     -0.445126
     30 C10         5.1630    0.1890   -2.6420 c3        1 MOL      0.058942
     31 C11         5.0990    1.5520   -3.2960 c         1 MOL      0.565245
     32 O6          4.2880    1.7430   -4.2470 o         1 MOL     -0.554036
     33 C12         5.0510   -0.9830   -3.6700 c3        1 MOL     -0.088961
     34 C13         5.2710   -2.3960   -3.0400 c         1 MOL      0.554908
     35 O7          4.4540   -2.8130   -2.1860 o         1 MOL     -0.669473
     36 O8          6.3420   -3.0060   -3.2530 o         1 MOL     -0.669473
     37 H13         7.2740   -0.2260   -2.2800 hn        1 MOL      0.225903
     38 H14         4.3510    0.0390   -1.9230 h1        1 MOL      0.102246
     39 H15         5.6680   -0.7400   -4.5340 hc        1 MOL      0.017303
     40 H16         4.0700   -1.0340   -4.1430 hc        1 MOL      0.017303
     41 N4          5.8140    2.5730   -2.8000 n         1 MOL     -0.457714
     42 C14         5.7970    3.8620   -3.4610 c3        1 MOL     -0.044095
     43 C15         4.6070    4.8540   -3.0640 c         1 MOL      0.672715
     44 O9          4.7800    6.0580   -2.9340 o         1 MOL     -0.591808
     45 H17         6.3820    2.4980   -1.9610 hn        1 MOL      0.331206
     46 H18         5.7710    3.7430   -4.5380 h1        1 MOL      0.052660
     47 H19         6.7180    4.3670   -3.1460 h1        1 MOL      0.052660
     48 N5          3.4120    4.2330   -2.9170 n         1 MOL     -0.547377
     49 C16         2.0950    4.8620   -2.6750 c3        1 MOL      0.378057
     50 C17         1.6240    4.7740   -1.1190 c         1 MOL      0.392736
     51 O10         2.1110    3.8800   -0.4280 o         1 MOL     -0.420475
     52 C18         1.0730    4.1670   -3.5660 c3        1 MOL     -0.366274
     53 C19         1.2220    4.5800   -5.0600 c         1 MOL      0.618146
     54 N6          0.3960    5.3010   -5.7090 n         1 MOL     -0.716675
     55 O11         2.1860    4.2540   -5.7980 o         1 MOL     -0.540485
     56 H20         3.4350    3.3170   -3.3480 hn        1 MOL      0.225807
     57 H21         2.2130    5.9110   -2.9700 h1        1 MOL     -0.013901
     58 H22         0.0390    4.3730   -3.2800 hc        1 MOL      0.132474
     59 H23         1.1820    3.0810   -3.4850 hc        1 MOL      0.132474
     60 H24        -0.4910    5.5590   -5.3090 hn        1 MOL      0.335321
     61 H25         0.5090    5.2700   -6.7170 hn        1 MOL      0.335321
     62 N7          0.7030    5.6740   -0.6790 n         1 MOL     -0.471394
     63 C20         0.2390    5.6760    0.7570 c3        1 MOL     -0.009260
     64 C21        -1.2610    5.2090    0.7870 c         1 MOL      0.470274
     65 O12        -1.6960    4.3790   -0.0440 o         1 MOL     -0.449737
     66 H26         0.4320    6.4220   -1.2990 hn        1 MOL      0.271324
     67 H27         0.3160    6.7420    0.9500 h1        1 MOL      0.093076
     68 H28         0.9320    5.2120    1.4570 h1        1 MOL      0.093076
     69 N8         -2.0050    5.6970    1.7670 n         1 MOL     -0.445913
     70 C22        -3.4610    5.4590    1.8680 c3        1 MOL     -0.224613
     71 C23        -3.8260    4.1790    2.5350 c         1 MOL      0.473149
     72 O13        -4.9610    3.7360    2.3470 o         1 MOL     -0.534191
     73 C24        -4.2120    6.5910    2.6470 c3        1 MOL      0.486841
     74 C25        -3.9340    6.6710    4.1230 c3        1 MOL     -0.401395
     75 O14        -3.8970    7.8830    2.1890 oh        1 MOL     -0.660877
     76 H29        -1.5540    6.2690    2.4720 hn        1 MOL      0.245934
     77 H30        -3.9060    5.5060    0.8790 h1        1 MOL      0.174444
     78 H31        -5.2800    6.4010    2.5510 h1        1 MOL      0.041402
     79 H32        -2.9490    8.0440    2.2000 ho        1 MOL      0.392795
     80 H33        -2.9630    7.1200    4.3180 hc        1 MOL      0.092399
     81 H34        -4.7130    7.3360    4.5170 hc        1 MOL      0.092399
     82 H35        -3.9890    5.7200    4.6400 hc        1 MOL      0.092399
     83 N9         -2.8690    3.5330    3.1720 n         1 MOL     -0.032333
     84 C26        -2.9010    2.1080    3.5040 c3        1 MOL     -0.288743
     85 C27        -2.1300    1.2460    2.5160 c         1 MOL      0.621734
     86 O15        -0.9000    1.4620    2.2590 o         1 MOL     -0.512725
     87 C28        -2.4750    1.8750    4.9200 c3        1 MOL      0.295191
     88 C29        -3.1710    2.8130    5.9500 c3        1 MOL     -0.080057
     89 C30        -2.8460    0.4130    5.2520 c3        1 MOL     -0.199012
     90 C31        -4.6420    2.7900    5.9420 c3        1 MOL      0.023097
     91 H36        -1.9950    4.0260    3.2760 hn        1 MOL      0.171189
     92 H37        -3.9180    1.7350    3.4750 h1        1 MOL      0.131542
     93 H38        -1.4010    2.0010    5.0510 hc        1 MOL     -0.014203
     94 H39        -2.9350    3.8300    5.6450 hc        1 MOL     -0.009928
     95 H40        -2.7650    2.4720    6.9020 hc        1 MOL     -0.009928
     96 H41        -2.0370   -0.1560    4.7820 hc        1 MOL      0.050504
     97 H42        -2.7270    0.1920    6.3220 hc        1 MOL      0.050504
     98 H43        -3.8110    0.0690    4.8880 hc        1 MOL      0.050504
     99 H44        -5.1300    3.0030    4.9920 hc        1 MOL     -0.015651
    100 H45        -4.9020    1.7660    6.2030 hc        1 MOL     -0.015651
    101 H46        -5.0520    3.4710    6.6870 hc        1 MOL     -0.015651
    102 N10        -2.8600    0.3510    1.8150 n         1 MOL     -0.724869
    103 C32        -2.2760   -0.3790    0.6130 c3        1 MOL      0.444147
    104 C33        -3.3320   -0.7740   -0.4240 c         1 MOL      0.280592
    105 O16        -3.1080   -1.6010   -1.3130 o         1 MOL     -0.384655
    106 C34        -1.4230   -1.5510    1.2330 c3        1 MOL     -0.132497
    107 C35        -0.1840   -1.9900    0.3480 c         1 MOL      0.540421
    108 O17         0.2150   -1.3920   -0.6660 o         1 MOL     -0.652153
    109 O18         0.3080   -3.1140    0.6720 o         1 MOL     -0.652153
    110 H47        -3.8590    0.2610    1.8760 hn        1 MOL      0.329491
    111 H48        -1.5690    0.2610    0.0780 h1        1 MOL      0.050356
    112 H49        -2.0400   -2.3960    1.5610 hc        1 MOL      0.041579
    113 H50        -0.9530   -1.1740    2.1390 hc        1 MOL      0.041579
    114 N11        -4.4970   -0.1760   -0.3530 n         1 MOL     -0.428655
    115 C36        -5.6490   -0.5720   -1.1850 c3        1 MOL      0.344847
    116 C37        -6.1870   -1.9790   -0.8330 c         1 MOL      0.128426
    117 O19        -6.2700   -2.2490    0.3610 o         1 MOL     -0.462575
    118 C38        -6.7470    0.4630   -1.0170 c3        1 MOL     -0.254849
    119 C39        -6.4370    1.9050   -1.2900 ca        1 MOL      0.019045
    120 C40        -6.3580    2.8470   -0.2920 ca        1 MOL     -0.103376
    121 C41        -6.2050    2.3060   -2.6460 ca        1 MOL     -0.103376
    122 C42        -6.1930    4.2210   -0.6310 ca        1 MOL     -0.103185
    123 C43        -5.9480    3.6230   -2.9270 ca        1 MOL     -0.103185
    124 C44        -5.8940    4.5920   -1.9360 ca        1 MOL     -0.137929
    125 H51        -4.6540    0.2810    0.5360 hn        1 MOL      0.265174
    126 H52        -5.3190   -0.4480   -2.2200 h1        1 MOL      0.018793
    127 H53        -7.0740    0.3750    0.0150 hc        1 MOL      0.093755
    128 H54        -7.5800    0.2180   -1.6770 hc        1 MOL      0.093755
    129 H55        -6.4940    2.4930    0.7210 ha        1 MOL      0.096206
    130 H56        -6.2330    1.5970   -3.4550 ha        1 MOL      0.096206
    131 H57        -6.2640    4.9950    0.1230 ha        1 MOL      0.089416
    132 H58        -5.8180    3.9070   -3.9580 ha        1 MOL      0.089416
    133 H59        -5.5990    5.6240   -2.0870 ha        1 MOL      0.107490
    134 N12        -6.4080   -2.8280   -1.8310 n         1 MOL     -0.046465
    135 C45        -7.0180   -4.1470   -1.5290 c3        1 MOL      0.202070
    136 C46        -6.0290   -5.0700   -0.7810 c         1 MOL      0.206426
    137 O20        -6.4260   -6.1560   -0.3080 o         1 MOL     -0.529849
    138 C47        -7.3750   -4.6920   -2.8950 c3        1 MOL     -0.209915
    139 C48        -6.4060   -4.0470   -3.7940 c3        1 MOL      0.083457
    140 C49        -6.0130   -2.7030   -3.1850 c3        1 MOL     -0.250372
    141 H60        -7.9290   -4.1250   -0.9300 h1        1 MOL      0.034492
    142 H61        -7.3830   -5.7800   -2.8650 hc        1 MOL      0.071821
    143 H62        -8.3240   -4.2280   -3.1620 hc        1 MOL      0.071821
    144 H63        -5.5000   -4.6500   -3.7750 hc        1 MOL      0.012865
    145 H64        -6.7980   -3.9450   -4.8100 hc        1 MOL      0.012865
    146 H65        -4.9460   -2.5150   -3.2240 h1        1 MOL      0.101963
    147 H66        -6.6620   -1.9780   -3.6770 h1        1 MOL      0.101963
    148 N13        -4.7590   -4.7580   -0.8240 n         1 MOL      0.050983
    149 C50        -3.8260   -5.6360   -0.0620 c3        1 MOL     -0.307264
    150 C51        -3.9490   -5.6780    1.4500 c         1 MOL      0.521675
    151 O21        -3.4000   -6.5570    2.0700 o         1 MOL     -0.525698
    152 C52        -2.4180   -5.1530   -0.4320 c3        1 MOL      0.377510
    153 C53        -2.0970   -5.2580   -1.9230 c3        1 MOL     -0.546283
    154 C54        -0.6310   -4.8180   -2.0990 c         1 MOL      0.942750
    155 O22         0.3340   -5.4310   -1.5680 o         1 MOL     -0.805710
    156 O23        -0.2790   -3.7680   -2.6990 o         1 MOL     -0.805710
    157 H67        -4.3980   -3.9240   -1.2750 hn        1 MOL      0.218415
    158 H68        -4.0250   -6.5990   -0.5160 h1        1 MOL      0.150992
    159 H69        -1.7080   -5.7680    0.1240 hc        1 MOL     -0.049386
    160 H70        -2.2870   -4.1130   -0.1680 hc        1 MOL     -0.049386
    161 H71        -2.7770   -4.6610   -2.5250 hc        1 MOL      0.080552
    162 H72        -2.2160   -6.3050   -2.1840 hc        1 MOL      0.080552
    163 N14        -4.7350   -4.7630    2.0390 n         1 MOL     -0.247765
    164 C55        -4.8490   -4.5190    3.4860 c3        1 MOL     -0.118947
    165 H73        -5.8620   -4.1910    3.7190 h1        1 MOL      0.068125
    166 H74        -4.6300   -5.4380    4.0290 h1        1 MOL      0.068125
    167 H75        -4.1410   -3.7450    3.7810 h1        1 MOL      0.068125
    168 H76        -5.0510   -4.0270    1.4150 hn        1 MOL      0.195634
    169 Ca1         2.0450   -3.3130   -1.3360 Ca        1 MOL      1.679554
    170 O24         2.8200   -5.2310   -3.0810 oh        1 MOL     -0.773763
    171 H77         3.7080   -5.5680   -2.9730 ho        1 MOL      0.388669
    172 H78         2.3780   -5.8860   -3.6280 ho        1 MOL      0.388669
    173 O25         1.8770   -2.0590   -3.6540 oh        1 MOL     -0.773763
    174 H79         1.9080   -1.1200   -3.8440 ho        1 MOL      0.388669
    175 H80         1.9040   -2.4780   -4.5120 ho        1 MOL      0.388669
    176 O26         3.1890   -1.1960   -0.1360 oh        1 MOL     -0.773763
    177 H81         2.6410   -0.4230   -0.0490 ho        1 MOL      0.388669
    178 H82         3.8390   -1.1100    0.5630 ho        1 MOL      0.388669
    179 O27         3.5860   -4.5540    0.5170 oh        1 MOL     -0.773763
    180 H83         4.4620   -4.5440    0.1410 ho        1 MOL      0.388669
    181 H84         3.6200   -5.2390    1.1830 ho        1 MOL      0.388669
@<TRIPOS>BOND
     1    1    2 1   
     2    1    4 1   
     3    1    5 1   
     4    1    6 1   
     5    2    3 2   
     6    2    7 1   
     7    7    8 1   
     8    7   15 1   
     9    8    9 1   
    10    8   11 1   
    11    8   16 1   
    12    9   10 2   
    13    9   19 1   
    14   11   12 1   
    15   11   17 1   
    16   11   18 1   
    17   12   13 1   
    18   12   14 1   
    19   19   20 1   
    20   19   24 1   
    21   20   21 1   
    22   20   23 1   
    23   20   25 1   
    24   21   22 2   
    25   21   29 1   
    26   23   26 1   
    27   23   27 1   
    28   23   28 1   
    29   29   30 1   
    30   29   37 1   
    31   30   31 1   
    32   30   33 1   
    33   30   38 1   
    34   31   32 2   
    35   31   41 1   
    36   33   34 1   
    37   33   39 1   
    38   33   40 1   
    39   34   35 1   
    40   34   36 1   
    41   41   42 1   
    42   41   45 1   
    43   42   43 1   
    44   42   46 1   
    45   42   47 1   
    46   43   44 2   
    47   43   48 1   
    48   48   49 1   
    49   48   56 1   
    50   49   50 1   
    51   49   52 1   
    52   49   57 1   
    53   50   51 2   
    54   50   62 1   
    55   52   53 1   
    56   52   58 1   
    57   52   59 1   
    58   53   54 1   
    59   53   55 2   
    60   54   60 1   
    61   54   61 1   
    62   62   63 1   
    63   62   66 1   
    64   63   64 1   
    65   63   67 1   
    66   63   68 1   
    67   64   65 2   
    68   64   69 1   
    69   69   70 1   
    70   69   76 1   
    71   70   71 1   
    72   70   73 1   
    73   70   77 1   
    74   71   72 2   
    75   71   83 1   
    76   73   74 1   
    77   73   75 1   
    78   73   78 1   
    79   74   80 1   
    80   74   81 1   
    81   74   82 1   
    82   75   79 1   
    83   83   84 1   
    84   83   91 1   
    85   84   85 1   
    86   84   87 1   
    87   84   92 1   
    88   85   86 2   
    89   85  102 1   
    90   87   88 1   
    91   87   89 1   
    92   87   93 1   
    93   88   90 1   
    94   88   94 1   
    95   88   95 1   
    96   89   96 1   
    97   89   97 1   
    98   89   98 1   
    99   90   99 1   
   100   90  100 1   
   101   90  101 1   
   102  102  103 1   
   103  102  110 1   
   104  103  104 1   
   105  103  106 1   
   106  103  111 1   
   107  104  105 2   
   108  104  114 1   
   109  106  107 1   
   110  106  112 1   
   111  106  113 1   
   112  107  108 1   
   113  107  109 1   
   114  114  115 1   
   115  114  125 1   
   116  115  116 1   
   117  115  118 1   
   118  115  126 1   
   119  116  117 2   
   120  116  134 1   
   121  118  119 1   
   122  118  127 1   
   123  118  128 1   
   124  119  120 ar  
   125  119  121 ar  
   126  120  122 ar  
   127  120  129 1   
   128  121  123 ar  
   129  121  130 1   
   130  122  124 ar  
   131  122  131 1   
   132  123  124 ar  
   133  123  132 1   
   134  124  133 1   
   135  134  135 1   
   136  134  140 1   
   137  135  136 1   
   138  135  138 1   
   139  135  141 1   
   140  136  137 2   
   141  136  148 1   
   142  138  139 1   
   143  138  142 1   
   144  138  143 1   
   145  139  140 1   
   146  139  144 1   
   147  139  145 1   
   148  140  146 1   
   149  140  147 1   
   150  148  149 1   
   151  148  157 1   
   152  149  150 1   
   153  149  152 1   
   154  149  158 1   
   155  150  151 2   
   156  150  163 1   
   157  152  153 1   
   158  152  159 1   
   159  152  160 1   
   160  153  154 1   
   161  153  161 1   
   162  153  162 1   
   163  154  155 1   
   164  154  156 1   
   165  163  164 1   
   166  163  168 1   
   167  164  165 1   
   168  164  166 1   
   169  164  167 1   
   170  170  171 1   
   171  170  172 1   
   172  173  174 1   
   173  173  175 1   
   174  176  177 1   
   175  176  178 1   
   176  179  180 1   
   177  179  181 1   
@<TRIPOS>SUBSTRUCTURE
     1 MOL         1 TEMP              0 ****  ****    0 ROOT
