@<TRIPOS>MOLECULE
MOL
  192   187     1     0     0
SMALL
resp


@<TRIPOS>ATOM
      1 C1         -6.9200   -1.6980    3.1580 c3        1 MOL      0.032715
      2 C2         -5.7270   -2.0670    2.2740 c         1 MOL      0.801651
      3 O1         -5.0440   -1.1880    1.7540 o         1 MOL     -0.600310
      4 H1         -7.7440   -1.3580    2.5310 hc        1 MOL     -0.054838
      5 H2         -7.2350   -2.5730    3.7270 hc        1 MOL     -0.054838
      6 H3         -6.6320   -0.9020    3.8440 hc        1 MOL     -0.054838
      7 N1         -5.5940   -3.3050    1.8190 n         1 MOL     -0.852696
      8 C3         -4.5480   -3.8360    0.8630 c3        1 MOL      0.054920
      9 C4         -3.0270   -3.4840    1.2980 c         1 MOL      0.657611
     10 O2         -2.1140   -3.4390    0.4280 o         1 MOL     -0.574492
     11 C5         -4.8870   -3.5440   -0.6220 c3        1 MOL     -0.535194
     12 C6         -6.3640   -3.7430   -0.9940 c         1 MOL      0.784984
     13 O3         -7.1130   -2.7720   -1.1450 o         1 MOL     -0.651289
     14 O4         -6.7330   -4.8610   -1.3780 o         1 MOL     -0.651289
     15 H4         -6.1490   -3.9500    2.3600 hn        1 MOL      0.369201
     16 H5         -4.5940   -4.9050    1.0750 h1        1 MOL      0.113887
     17 H6         -4.3400   -4.1630   -1.3300 hc        1 MOL      0.180537
     18 H7         -4.6130   -2.5050   -0.8080 hc        1 MOL      0.180537
     19 N2         -2.6920   -3.4470    2.5690 n         1 MOL     -0.513824
     20 C7         -1.3230   -3.3090    3.1550 c3        1 MOL     -0.018789
     21 C8         -0.7080   -4.6610    3.2550 c         1 MOL      0.530109
     22 O5         -1.2950   -5.4990    3.9480 o         1 MOL     -0.614012
     23 C9         -1.4790   -2.6530    4.5390 c3        1 MOL      0.175743
     24 C10        -2.4770   -1.4640    4.4720 c3        1 MOL      0.064101
     25 C11        -0.1260   -2.3910    5.2360 c3        1 MOL     -0.194189
     26 C12        -2.8830   -0.8450    5.8220 c3        1 MOL     -0.091193
     27 H8         -3.4580   -3.6730    3.1830 hn        1 MOL      0.299921
     28 H9         -0.7940   -2.6340    2.4920 h1        1 MOL      0.122760
     29 H10        -1.9990   -3.3550    5.1900 hc        1 MOL     -0.048460
     30 H11        -3.4590   -1.6880    4.0600 hc        1 MOL     -0.010368
     31 H12        -1.9310   -0.6790    3.9460 hc        1 MOL     -0.010368
     32 H13         0.5140   -3.2720    5.1560 hc        1 MOL      0.040417
     33 H14         0.4410   -1.6310    4.7070 hc        1 MOL      0.040417
     34 H15        -0.3080   -2.1610    6.2900 hc        1 MOL      0.040417
     35 H16        -1.9810   -0.6130    6.3950 hc        1 MOL      0.018095
     36 H17        -3.4480    0.0630    5.6510 hc        1 MOL      0.018095
     37 H18        -3.5420   -1.4870    6.4090 hc        1 MOL      0.018095
     38 N3          0.3640   -5.0180    2.5800 n         1 MOL     -0.298938
     39 C13         1.0480   -4.3060    1.4300 c3        1 MOL     -0.045513
     40 C14         1.7460   -5.2230    0.4810 c         1 MOL      0.569324
     41 O6          2.1740   -6.2760    0.8320 o         1 MOL     -0.526748
     42 C15         2.0880   -3.4350    2.1620 c3        1 MOL     -0.173453
     43 C16         2.8820   -2.5460    1.2040 c         1 MOL      0.572366
     44 O7          3.8540   -3.0250    0.5450 o         1 MOL     -0.564145
     45 O8          2.5410   -1.3700    1.0380 o         1 MOL     -0.564145
     46 H19         0.6920   -5.9560    2.7690 hn        1 MOL      0.239730
     47 H20         0.2950   -3.6860    0.9460 h1        1 MOL      0.073895
     48 H21         2.8260   -4.1010    2.6080 hc        1 MOL      0.035124
     49 H22         1.5470   -2.8680    2.9280 hc        1 MOL      0.035124
     50 N4          1.8880   -4.6810   -0.7460 n         1 MOL     -0.464336
     51 C17         2.3130   -5.3630   -2.0010 c3        1 MOL     -0.034202
     52 C18         3.6300   -5.0030   -2.7150 c         1 MOL      0.585357
     53 O9          3.8920   -5.5180   -3.7730 o         1 MOL     -0.602444
     54 H23         1.6360   -3.7070   -0.7940 hn        1 MOL      0.340333
     55 H24         1.5050   -5.2020   -2.7160 h1        1 MOL      0.069462
     56 H25         2.3310   -6.4430   -1.8990 h1        1 MOL      0.069462
     57 N5          4.4160   -4.0350   -2.2280 n         1 MOL     -0.528328
     58 C19         5.6350   -3.5620   -2.9440 c3        1 MOL      0.292933
     59 C20         6.8420   -3.2600   -2.0530 c         1 MOL      0.232322
     60 O10         7.9730   -3.2790   -2.4590 o         1 MOL     -0.515971
     61 C21         5.2610   -2.2590   -3.7470 c3        1 MOL     -0.219384
     62 C22         4.5820   -1.1540   -2.8810 c         1 MOL      0.695477
     63 O11         5.2440   -0.4300   -2.1210 o         1 MOL     -0.636371
     64 O12         3.3680   -0.9450   -3.0060 o         1 MOL     -0.636371
     65 H26         4.0940   -3.6010   -1.3760 hn        1 MOL      0.326804
     66 H27         5.9510   -4.2700   -3.7100 h1        1 MOL      0.043410
     67 H28         4.6780   -2.5130   -4.6420 hc        1 MOL      0.034607
     68 H29         6.2220   -1.8630   -4.0730 hc        1 MOL      0.034607
     69 N6          6.5340   -2.9450   -0.8040 n         1 MOL      0.006906
     70 C23         7.4770   -2.4990    0.2190 c3        1 MOL     -0.094623
     71 C24         8.1970   -1.0890    0.0530 c         1 MOL      0.434404
     72 O13         9.1580   -0.7550    0.7550 o         1 MOL     -0.549388
     73 H30         5.5650   -3.0400   -0.5690 hn        1 MOL      0.001366
     74 H31         8.2780   -3.1970    0.4570 h1        1 MOL      0.064779
     75 H32         6.8710   -2.5010    1.1210 h1        1 MOL      0.064779
     76 N7          7.7490   -0.2520   -0.9060 n         1 MOL     -0.053569
     77 C25         8.2490    1.1270   -1.1200 c3        1 MOL     -0.141054
     78 C26         8.1930    1.9830    0.1200 c         1 MOL      0.527498
     79 O14         9.0000    2.9980    0.2340 o         1 MOL     -0.567499
     80 C27         9.5890    1.1920   -1.9030 c3        1 MOL     -0.017585
     81 C28         9.4050    0.5310   -3.2700 c3        1 MOL      0.116214
     82 C29        10.6720    0.4450   -4.0590 c         1 MOL      0.540371
     83 N8         10.9640    1.4270   -4.9130 n         1 MOL     -0.766500
     84 O15        11.4850   -0.4180   -3.7730 o         1 MOL     -0.542895
     85 H33         6.8370   -0.4520   -1.2790 hn        1 MOL      0.131260
     86 H34         7.5890    1.6290   -1.8360 h1        1 MOL      0.099585
     87 H35        10.3080    0.6540   -1.2790 hc        1 MOL      0.040488
     88 H36         9.8320    2.2470   -2.0300 hc        1 MOL      0.040488
     89 H37         8.6970    1.0380   -3.9180 hc        1 MOL     -0.032671
     90 H38         9.0300   -0.4860   -3.2050 hc        1 MOL     -0.032671
     91 H39        10.4130    2.2450   -5.1480 hn        1 MOL      0.328990
     92 H40        11.5690    1.1780   -5.6910 hn        1 MOL      0.328990
     93 N9          7.3690    1.6500    1.1400 n         1 MOL     -0.396510
     94 C30         7.1010    2.5030    2.2910 c3        1 MOL     -0.048822
     95 C31         5.6440    2.9520    2.3940 c         1 MOL      0.614532
     96 O16         5.3830    3.8840    3.1450 o         1 MOL     -0.592067
     97 C32         7.5360    1.8020    3.6080 c3        1 MOL      0.381036
     98 C33         6.8420    0.4470    3.8100 c3        1 MOL     -0.244237
     99 C34         9.0530    1.7060    3.6840 c3        1 MOL     -0.244237
    100 H41         6.8200    0.8150    1.0220 hn        1 MOL      0.284065
    101 H42         7.6460    3.4360    2.2420 h1        1 MOL      0.072609
    102 H43         7.3490    2.5350    4.3970 hc        1 MOL     -0.078899
    103 H44         7.1920   -0.2350    3.0390 hc        1 MOL      0.042213
    104 H45         7.2030    0.0880    4.7760 hc        1 MOL      0.042213
    105 H46         5.7790    0.6930    3.7830 hc        1 MOL      0.042213
    106 H47         9.4210    0.8220    3.1590 hc        1 MOL      0.042213
    107 H48         9.5850    2.5920    3.3320 hc        1 MOL      0.042213
    108 H49         9.3270    1.6130    4.7370 hc        1 MOL      0.042213
    109 N10         4.6820    2.3130    1.7070 n         1 MOL     -0.590695
    110 C35         3.2330    2.4910    2.1110 c3        1 MOL      0.420891
    111 C36         2.3540    2.4480    0.8160 c         1 MOL      0.320615
    112 O17         2.9230    2.2560   -0.3000 o         1 MOL     -0.469339
    113 C37         2.9150    1.4410    3.1920 c3        1 MOL     -0.160401
    114 C38         1.4990    1.1210    3.4440 c         1 MOL      0.532257
    115 N11         0.9870    0.0450    2.8820 n         1 MOL     -0.721143
    116 O18         0.7700    1.9340    4.0330 o         1 MOL     -0.588995
    117 H50         4.8350    1.5970    1.0140 hn        1 MOL      0.279878
    118 H51         3.0490    3.4630    2.5750 h1        1 MOL      0.014387
    119 H52         3.3150    1.8640    4.1220 hc        1 MOL      0.039475
    120 H53         3.4930    0.5340    3.0530 hc        1 MOL      0.039475
    121 H54         1.6000   -0.3770    2.2000 hn        1 MOL      0.364538
    122 H55        -0.0170    0.0790    2.9190 hn        1 MOL      0.364538
    123 N12         1.0200    2.4860    0.9600 n         1 MOL     -0.453626
    124 C39         0.0630    2.4060   -0.1560 c3        1 MOL      0.290340
    125 C40        -0.9510    3.4880    0.1650 c         1 MOL      0.425593
    126 O19        -1.3470    3.6820    1.2950 o         1 MOL     -0.538479
    127 C41        -0.6050    1.0140   -0.2480 c3        1 MOL     -0.072728
    128 C42        -1.5900    0.9600   -1.4610 ca        1 MOL     -0.016994
    129 C43        -1.1500    1.3700   -2.7360 ca        1 MOL     -0.124358
    130 C44        -2.7680    0.1980   -1.2940 ca        1 MOL     -0.124358
    131 C45        -2.0220    1.1550   -3.7600 ca        1 MOL     -0.222202
    132 C46        -3.6810    0.1240   -2.3300 ca        1 MOL     -0.222202
    133 C47        -3.2930    0.6570   -3.5510 ca        1 MOL      0.346459
    134 O20        -4.1790    0.4710   -4.6340 oh        1 MOL     -0.620433
    135 H56         0.5140    2.6380    1.8260 hn        1 MOL      0.268421
    136 H57         0.5030    2.6240   -1.1300 h1        1 MOL     -0.006850
    137 H58        -1.0540    0.6850    0.6910 hc        1 MOL      0.041610
    138 H59         0.2250    0.3200   -0.4260 hc        1 MOL      0.041610
    139 H60        -0.2190    1.8650   -2.9810 ha        1 MOL      0.166240
    140 H61        -3.0480   -0.2640   -0.3510 ha        1 MOL      0.166240
    141 H62        -1.7900    1.5930   -4.7220 ha        1 MOL      0.122602
    142 H63        -4.5960   -0.4170   -2.1500 ha        1 MOL      0.122602
    143 H64        -5.0020   -0.0140   -4.5610 ho        1 MOL      0.436467
    144 N13        -1.3590    4.1380   -0.9010 n         1 MOL     -0.286238
    145 C48        -2.4160    5.0890   -0.9180 c3        1 MOL     -0.000341
    146 C49        -3.4550    4.6530   -1.9800 c         1 MOL      0.483667
    147 O21        -3.2190    4.9600   -3.1590 o         1 MOL     -0.540427
    148 C50        -2.0740    6.5820   -1.0510 c3        1 MOL      0.165334
    149 C51        -1.0550    7.1570   -0.1040 c3        1 MOL     -0.272538
    150 C52        -1.0260    8.6600   -0.2070 c         1 MOL      0.733283
    151 O22        -1.6920    9.3810    0.5460 o         1 MOL     -0.662505
    152 O23        -0.2960    9.2110   -1.0770 o         1 MOL     -0.662505
    153 H65        -0.8600    3.9270   -1.7600 hn        1 MOL      0.230011
    154 H66        -2.9710    4.9510    0.0190 h1        1 MOL      0.039962
    155 H67        -2.9500    7.2260   -1.0050 hc        1 MOL      0.004063
    156 H68        -1.7760    6.8950   -2.0420 hc        1 MOL      0.004063
    157 H69        -0.1070    6.6710   -0.3300 hc        1 MOL      0.046581
    158 H70        -1.3200    6.8860    0.9130 hc        1 MOL      0.046581
    159 N14        -4.6490    4.0800   -1.6570 n         1 MOL     -0.502845
    160 C53        -5.1570    3.7520   -0.3540 c3        1 MOL      0.022005
    161 C54        -5.2770    4.9710    0.5890 c         1 MOL      0.474433
    162 O24        -5.4260    6.1430    0.1840 o         1 MOL     -0.514440
    163 C55        -6.5290    3.0280   -0.5690 c3        1 MOL     -0.073380
    164 C56        -6.3090    1.6580   -1.1300 c3        1 MOL      0.230501
    165 C57        -7.4760    0.7740   -1.1440 c         1 MOL      0.407239
    166 O25        -7.8350    0.2000   -2.2240 o         1 MOL     -0.621579
    167 O26        -8.0920    0.5620   -0.1030 o         1 MOL     -0.621579
    168 H71        -5.3510    3.9790   -2.3740 hn        1 MOL      0.335993
    169 H72        -4.4260    3.0840    0.1000 h1        1 MOL      0.035021
    170 H73        -7.2330    3.5510   -1.2230 hc        1 MOL     -0.004648
    171 H74        -6.9040    2.8270    0.4390 hc        1 MOL     -0.004648
    172 H75        -5.5150    1.1480   -0.5830 hc        1 MOL     -0.025597
    173 H76        -5.9530    1.8240   -2.1490 hc        1 MOL     -0.025597
    174 N15        -5.2240    4.6740    1.9090 n         1 MOL     -0.199820
    175 C58        -5.3200    5.6060    3.0010 c3        1 MOL     -0.411943
    176 H77        -6.2130    6.2190    2.8780 h1        1 MOL      0.149559
    177 H78        -5.3830    5.0600    3.9420 h1        1 MOL      0.149559
    178 H79        -4.4380    6.2470    3.0100 h1        1 MOL      0.149559
    179 H80        -5.0410    3.7040    2.1140 hn        1 MOL      0.262760
    180 Ca1        -9.4320   -1.4770   -1.1270 Ca        1 MOL      1.479498
    181 O27       -12.0550   -3.1030   -1.7940 oh        1 MOL     -0.747913
    182 H81       -12.9760   -3.0360   -2.0390 ho        1 MOL      0.339944
    183 H82       -12.0460   -2.8530   -0.8670 ho        1 MOL      0.339944
    184 O28        -9.4420   -4.2600   -1.1590 oh        1 MOL     -0.747913
    185 H83        -8.5170   -4.4470   -1.1950 ho        1 MOL      0.339944
    186 H84        -9.8460   -5.0790   -0.8680 ho        1 MOL      0.339944
    187 O29        -9.5330   -1.4640   -3.9530 oh        1 MOL     -0.747913
    188 H85        -9.7400   -0.7860   -4.5990 ho        1 MOL      0.339944
    189 H86        -9.1310   -2.1670   -4.4580 ho        1 MOL      0.339944
    190 O30       -11.2120    0.1770   -1.9440 oh        1 MOL     -0.747913
    191 H87       -11.0530    1.0420   -2.3380 ho        1 MOL      0.339944
    192 H88       -12.1140   -0.0310   -2.1760 ho        1 MOL      0.339944
@<TRIPOS>BOND
     1    1    2 1   
     2    1    4 1   
     3    1    5 1   
     4    1    6 1   
     5    2    3 2   
     6    2    7 1   
     7    7    8 1   
     8    7   15 1   
     9    8    9 1   
    10    8   11 1   
    11    8   16 1   
    12    9   10 2   
    13    9   19 1   
    14   11   12 1   
    15   11   17 1   
    16   11   18 1   
    17   12   13 1   
    18   12   14 1   
    19   19   20 1   
    20   19   27 1   
    21   20   21 1   
    22   20   23 1   
    23   20   28 1   
    24   21   22 2   
    25   21   38 1   
    26   23   24 1   
    27   23   25 1   
    28   23   29 1   
    29   24   26 1   
    30   24   30 1   
    31   24   31 1   
    32   25   32 1   
    33   25   33 1   
    34   25   34 1   
    35   26   35 1   
    36   26   36 1   
    37   26   37 1   
    38   38   39 1   
    39   38   46 1   
    40   39   40 1   
    41   39   42 1   
    42   39   47 1   
    43   40   41 2   
    44   40   50 1   
    45   42   43 1   
    46   42   48 1   
    47   42   49 1   
    48   43   44 1   
    49   43   45 1   
    50   50   51 1   
    51   50   54 1   
    52   51   52 1   
    53   51   55 1   
    54   51   56 1   
    55   52   53 2   
    56   52   57 1   
    57   57   58 1   
    58   57   65 1   
    59   58   59 1   
    60   58   61 1   
    61   58   66 1   
    62   59   60 2   
    63   59   69 1   
    64   61   62 1   
    65   61   67 1   
    66   61   68 1   
    67   62   63 1   
    68   62   64 1   
    69   69   70 1   
    70   69   73 1   
    71   70   71 1   
    72   70   74 1   
    73   70   75 1   
    74   71   72 2   
    75   71   76 1   
    76   76   77 1   
    77   76   85 1   
    78   77   78 1   
    79   77   80 1   
    80   77   86 1   
    81   78   79 2   
    82   78   93 1   
    83   80   81 1   
    84   80   87 1   
    85   80   88 1   
    86   81   82 1   
    87   81   89 1   
    88   81   90 1   
    89   82   83 1   
    90   82   84 2   
    91   83   91 1   
    92   83   92 1   
    93   93   94 1   
    94   93  100 1   
    95   94   95 1   
    96   94   97 1   
    97   94  101 1   
    98   95   96 2   
    99   95  109 1   
   100   97   98 1   
   101   97   99 1   
   102   97  102 1   
   103   98  103 1   
   104   98  104 1   
   105   98  105 1   
   106   99  106 1   
   107   99  107 1   
   108   99  108 1   
   109  109  110 1   
   110  109  117 1   
   111  110  111 1   
   112  110  113 1   
   113  110  118 1   
   114  111  112 2   
   115  111  123 1   
   116  113  114 1   
   117  113  119 1   
   118  113  120 1   
   119  114  115 1   
   120  114  116 2   
   121  115  121 1   
   122  115  122 1   
   123  123  124 1   
   124  123  135 1   
   125  124  125 1   
   126  124  127 1   
   127  124  136 1   
   128  125  126 2   
   129  125  144 1   
   130  127  128 1   
   131  127  137 1   
   132  127  138 1   
   133  128  129 ar  
   134  128  130 ar  
   135  129  131 ar  
   136  129  139 1   
   137  130  132 ar  
   138  130  140 1   
   139  131  133 ar  
   140  131  141 1   
   141  132  133 ar  
   142  132  142 1   
   143  133  134 1   
   144  134  143 1   
   145  144  145 1   
   146  144  153 1   
   147  145  146 1   
   148  145  148 1   
   149  145  154 1   
   150  146  147 2   
   151  146  159 1   
   152  148  149 1   
   153  148  155 1   
   154  148  156 1   
   155  149  150 1   
   156  149  157 1   
   157  149  158 1   
   158  150  151 1   
   159  150  152 1   
   160  159  160 1   
   161  159  168 1   
   162  160  161 1   
   163  160  163 1   
   164  160  169 1   
   165  161  162 2   
   166  161  174 1   
   167  163  164 1   
   168  163  170 1   
   169  163  171 1   
   170  164  165 1   
   171  164  172 1   
   172  164  173 1   
   173  165  166 1   
   174  165  167 1   
   175  174  175 1   
   176  174  179 1   
   177  175  176 1   
   178  175  177 1   
   179  175  178 1   
   180  181  182 1   
   181  181  183 1   
   182  184  185 1   
   183  184  186 1   
   184  187  188 1   
   185  187  189 1   
   186  190  191 1   
   187  190  192 1   
@<TRIPOS>SUBSTRUCTURE
     1 MOL         1 TEMP              0 ****  ****    0 ROOT
