@<TRIPOS>MOLECULE
MOL
  192   187     1     0     0
SMALL
resp


@<TRIPOS>ATOM
      1 C1          1.5700    5.1990    3.1650 c3        1 MOL     -0.465299
      2 C2          0.7130    4.7940    1.9760 c         1 MOL      0.741905
      3 O1          0.1770    3.7020    1.9240 o         1 MOL     -0.543856
      4 H1          2.5400    4.7070    3.0970 hc        1 MOL      0.107157
      5 H2          1.7100    6.2800    3.1600 hc        1 MOL      0.107157
      6 H3          1.0750    4.9010    4.0890 hc        1 MOL      0.107157
      7 N1          0.5320    5.6720    0.9760 n         1 MOL     -0.629395
      8 C3         -0.3400    5.3290   -0.1930 c3        1 MOL     -0.065951
      9 C4         -1.8410    4.9460    0.1460 c         1 MOL      0.900601
     10 O2         -2.3690    4.0400   -0.4630 o         1 MOL     -0.611083
     11 C5          0.4630    4.4160   -1.1020 c3        1 MOL     -0.223759
     12 C6          1.8990    4.9150   -1.2510 c         1 MOL      0.720233
     13 O3          2.8680    4.1240   -1.0770 o         1 MOL     -0.700060
     14 O4          2.0820    6.1500   -1.5460 o         1 MOL     -0.700060
     15 H4          0.9940    6.5620    1.0450 hn        1 MOL      0.280862
     16 H5         -0.4060    6.2500   -0.7580 h1        1 MOL      0.094405
     17 H6          0.0030    4.4330   -2.0840 hc        1 MOL      0.100583
     18 H7          0.3830    3.3890   -0.7370 hc        1 MOL      0.100583
     19 N2         -2.5530    5.6770    1.0410 n         1 MOL     -0.749582
     20 C7         -3.9480    5.4660    1.3720 c3        1 MOL     -0.076392
     21 C8         -4.8330    5.8440    0.1950 c         1 MOL      0.442312
     22 O5         -4.4560    6.8850   -0.4190 o         1 MOL     -0.575913
     23 C9         -4.4000    6.0370    2.7800 c3        1 MOL      0.191538
     24 C10        -4.3570    7.5800    2.8150 c3        1 MOL     -0.170955
     25 C11        -3.5380    5.2470    3.8050 c3        1 MOL     -0.130825
     26 C12        -5.1630    8.1860    3.9750 c3        1 MOL     -0.150025
     27 H8         -2.0310    6.4460    1.4370 hn        1 MOL      0.370556
     28 H9         -4.0670    4.3820    1.4730 h1        1 MOL      0.119535
     29 H10        -5.4150    5.7160    2.9990 hc        1 MOL      0.048747
     30 H11        -4.8880    7.8670    1.9060 hc        1 MOL      0.077089
     31 H12        -3.3530    8.0020    2.7210 hc        1 MOL      0.077089
     32 H13        -2.5550    5.7030    3.8820 hc        1 MOL      0.031247
     33 H14        -3.9030    5.4380    4.8080 hc        1 MOL      0.031247
     34 H15        -3.4800    4.1790    3.6080 hc        1 MOL      0.031247
     35 H16        -4.5780    8.0830    4.8810 hc        1 MOL      0.033248
     36 H17        -5.3840    9.2360    3.7610 hc        1 MOL      0.033248
     37 H18        -6.1140    7.6670    4.1010 hc        1 MOL      0.033248
     38 N3         -5.9480    5.2010   -0.0790 n         1 MOL     -0.347262
     39 C13        -6.5400    4.0140    0.5250 c3        1 MOL      0.208755
     40 C14        -6.1350    2.7320   -0.2060 c         1 MOL      0.464783
     41 O6         -6.3880    1.5690    0.2400 o         1 MOL     -0.575317
     42 C15        -8.0900    4.1350    0.5990 c3        1 MOL     -0.200383
     43 C16        -8.8160    4.4590   -0.7690 c         1 MOL      0.712715
     44 O7         -8.2000    4.7640   -1.7700 o         1 MOL     -0.705627
     45 O8        -10.0010    4.1470   -0.8290 o         1 MOL     -0.705627
     46 H19        -6.3830    5.5250   -0.9370 hn        1 MOL      0.216270
     47 H20        -6.1580    3.9110    1.5430 h1        1 MOL     -0.041625
     48 H21        -8.1810    5.0070    1.2580 hc        1 MOL      0.027412
     49 H22        -8.5000    3.2690    1.1080 hc        1 MOL      0.027412
     50 N4         -5.4970    2.8610   -1.4080 n         1 MOL     -0.264504
     51 C17        -5.0160    1.8330   -2.2350 c3        1 MOL     -0.131418
     52 C18        -5.9470    0.7740   -2.7300 c         1 MOL      0.555913
     53 O9         -7.1380    0.8750   -2.7050 o         1 MOL     -0.463240
     54 H23        -5.2900    3.7950   -1.7310 hn        1 MOL      0.298754
     55 H24        -4.2070    1.3540   -1.6680 h1        1 MOL      0.072303
     56 H25        -4.6530    2.3970   -3.0850 h1        1 MOL      0.072303
     57 N5         -5.2300   -0.3320   -3.0170 n         1 MOL     -0.509928
     58 C19        -5.8490   -1.6730   -3.2430 c3        1 MOL      0.191442
     59 C20        -6.4540   -2.3290   -2.0340 c         1 MOL      0.271615
     60 O10        -7.2690   -3.2890   -2.2020 o         1 MOL     -0.505902
     61 C21        -4.7450   -2.6440   -3.7920 c3        1 MOL     -0.317849
     62 C22        -3.3880   -2.5970   -3.0020 c         1 MOL      0.720224
     63 O11        -2.7150   -1.5860   -3.1620 o         1 MOL     -0.674534
     64 O12        -3.0290   -3.4840   -2.2090 o         1 MOL     -0.674534
     65 H26        -4.2510   -0.3070   -2.7930 hn        1 MOL      0.230310
     66 H27        -6.6660   -1.5010   -3.9400 h1        1 MOL      0.056868
     67 H28        -4.6500   -2.4130   -4.8460 hc        1 MOL      0.068243
     68 H29        -5.1940   -3.6280   -3.6870 hc        1 MOL      0.068243
     69 N6         -6.1000   -1.9430   -0.7840 n         1 MOL     -0.028275
     70 C23        -6.4260   -2.5750    0.4880 c3        1 MOL     -0.348482
     71 C24        -5.9860   -4.0480    0.6780 c         1 MOL      0.590554
     72 O13        -6.5350   -4.7530    1.4650 o         1 MOL     -0.569930
     73 H30        -5.4300   -1.1950   -0.6680 hn        1 MOL      0.237759
     74 H31        -7.5070   -2.4620    0.5490 h1        1 MOL      0.135579
     75 H32        -5.9260   -2.0670    1.3120 h1        1 MOL      0.135579
     76 N7         -4.8920   -4.4250   -0.0300 n         1 MOL     -0.083120
     77 C25        -4.1150   -5.7380   -0.0400 c3        1 MOL      0.002202
     78 C26        -3.6880   -6.1430    1.3640 c         1 MOL      0.427856
     79 O14        -3.6110   -7.3440    1.7180 o         1 MOL     -0.510651
     80 C27        -5.0420   -6.8260   -0.8190 c3        1 MOL     -0.096260
     81 C28        -5.1560   -6.6560   -2.3710 c3        1 MOL     -0.092131
     82 C29        -5.4220   -7.9730   -3.0900 c         1 MOL      0.649124
     83 N8         -5.0470   -8.0970   -4.3150 n         1 MOL     -0.773538
     84 O15        -6.0330   -8.9440   -2.5830 o         1 MOL     -0.593580
     85 H33        -4.5440   -3.7870   -0.7280 hn        1 MOL      0.050134
     86 H34        -3.1960   -5.5830   -0.6140 h1        1 MOL      0.133296
     87 H35        -6.0530   -6.9600   -0.4290 hc        1 MOL      0.053602
     88 H36        -4.6140   -7.8110   -0.7400 hc        1 MOL      0.053602
     89 H37        -4.2130   -6.1710   -2.6460 hc        1 MOL      0.028012
     90 H38        -5.8850   -5.8930   -2.6350 hc        1 MOL      0.028012
     91 H39        -4.5220   -7.3660   -4.7900 hn        1 MOL      0.345529
     92 H40        -5.2420   -8.9780   -4.7720 hn        1 MOL      0.345529
     93 N9         -3.3350   -5.0900    2.1140 n         1 MOL     -0.255079
     94 C30        -2.7210   -5.1660    3.5100 c3        1 MOL     -0.308039
     95 C31        -1.4140   -4.3410    3.6490 c         1 MOL      0.641813
     96 O16        -0.7340   -4.4950    4.6820 o         1 MOL     -0.575664
     97 C32        -3.7170   -4.7470    4.6580 c3        1 MOL      0.346413
     98 C33        -4.1490   -3.2600    4.5890 c3        1 MOL     -0.354327
     99 C34        -4.8760   -5.7250    4.5680 c3        1 MOL     -0.354327
    100 H41        -3.4020   -4.2320    1.5850 hn        1 MOL      0.129647
    101 H42        -2.5030   -6.2290    3.5790 h1        1 MOL      0.161639
    102 H43        -3.2370   -4.8800    5.6160 hc        1 MOL     -0.025395
    103 H44        -4.9250   -3.1450    3.8210 hc        1 MOL      0.083817
    104 H45        -4.5240   -3.0160    5.5830 hc        1 MOL      0.083817
    105 H46        -3.3680   -2.5280    4.4060 hc        1 MOL      0.083817
    106 H47        -4.5960   -6.7810    4.4870 hc        1 MOL      0.083817
    107 H48        -5.6050   -5.4770    5.3310 hc        1 MOL      0.083817
    108 H49        -5.3230   -5.4420    3.6150 hc        1 MOL      0.083817
    109 N10        -1.1040   -3.5240    2.6270 n         1 MOL     -0.529186
    110 C35         0.1810   -2.8790    2.3930 c3        1 MOL      0.282263
    111 C36         0.9080   -3.5650    1.2030 c         1 MOL      0.479875
    112 O17         0.3440   -4.4480    0.5500 o         1 MOL     -0.546080
    113 C37        -0.2010   -1.4260    2.0430 c3        1 MOL     -0.292401
    114 C38         0.9740   -0.4540    2.1440 c         1 MOL      0.639557
    115 N11         0.6340    0.6870    1.7180 n         1 MOL     -0.712069
    116 O18         2.0300   -0.6000    2.8190 o         1 MOL     -0.558672
    117 H50        -1.8100   -3.3510    1.9230 hn        1 MOL      0.332482
    118 H51         0.8840   -2.9910    3.2250 h1        1 MOL      0.025971
    119 H52        -1.0240   -1.0590    2.6650 hc        1 MOL      0.080001
    120 H53        -0.5520   -1.4530    1.0140 hc        1 MOL      0.080001
    121 H54        -0.1580    0.6570    1.1000 hn        1 MOL      0.367926
    122 H55         1.2050    1.5200    1.7860 hn        1 MOL      0.367926
    123 N12         2.0700   -3.0920    0.8060 n         1 MOL     -0.237346
    124 C39         2.9580   -3.7470   -0.1590 c3        1 MOL     -0.020722
    125 C40         4.4100   -3.3880    0.2090 c         1 MOL      0.683493
    126 O19         4.7480   -2.4400    0.9370 o         1 MOL     -0.582267
    127 C41         2.6330   -3.3460   -1.6110 c3        1 MOL     -0.116692
    128 C42         3.0450   -1.8910   -1.8550 ca        1 MOL      0.066307
    129 C43         2.1960   -0.8380   -1.3520 ca        1 MOL     -0.138959
    130 C44         4.1250   -1.6210   -2.6670 ca        1 MOL     -0.138959
    131 C45         2.6430    0.4680   -1.4810 ca        1 MOL     -0.307908
    132 C46         4.4760   -0.2580   -2.9010 ca        1 MOL     -0.307908
    133 C47         3.7730    0.7450   -2.2840 ca        1 MOL      0.376206
    134 O20         4.2170    2.0130   -2.2910 oh        1 MOL     -0.481345
    135 H56         2.5080   -2.4950    1.4980 hn        1 MOL      0.134946
    136 H57         2.8650   -4.8220    0.0380 h1        1 MOL      0.067790
    137 H58         1.6090   -3.6180   -1.8640 hc        1 MOL      0.066479
    138 H59         3.1570   -3.9350   -2.3670 hc        1 MOL      0.066479
    139 H60         1.2930   -1.0060   -0.7880 ha        1 MOL      0.135570
    140 H61         4.7430   -2.4180   -3.0680 ha        1 MOL      0.135570
    141 H62         2.0530    1.2890   -1.1050 ha        1 MOL      0.139114
    142 H63         5.3920   -0.0800   -3.4400 ha        1 MOL      0.139114
    143 H64         3.5720    2.5130   -1.7950 ho        1 MOL      0.328393
    144 N13         5.3900   -4.0710   -0.4170 n         1 MOL     -0.743364
    145 C48         6.8920   -3.7650   -0.2710 c3        1 MOL      0.193128
    146 C49         7.4890   -3.0560   -1.5270 c         1 MOL      0.550258
    147 O21         7.8190   -3.6840   -2.5220 o         1 MOL     -0.542976
    148 C50         7.4690   -5.0680    0.2920 c3        1 MOL      0.009846
    149 C51         9.0760   -5.0180    0.4500 c3        1 MOL     -0.059493
    150 C52         9.6410   -6.3990    0.9140 c         1 MOL      0.597806
    151 O22         9.9540   -7.2140   -0.0070 o         1 MOL     -0.667456
    152 O23         9.5180   -6.6420    2.1760 o         1 MOL     -0.667456
    153 H65         5.1510   -4.8320   -1.0280 hn        1 MOL      0.340405
    154 H66         7.0230   -3.0920    0.5760 h1        1 MOL      0.076986
    155 H67         7.3210   -5.8660   -0.4280 hc        1 MOL      0.024243
    156 H68         7.0490   -5.3760    1.2420 hc        1 MOL      0.024243
    157 H69         9.4090   -4.2640    1.1630 hc        1 MOL     -0.024349
    158 H70         9.4630   -4.7730   -0.5430 hc        1 MOL     -0.024349
    159 N14         7.5950   -1.7110   -1.4960 n         1 MOL     -0.482230
    160 C53         7.2830   -0.6800   -0.4860 c3        1 MOL      0.105018
    161 C54         7.8950   -0.9930    0.8820 c         1 MOL      0.346541
    162 O24         9.0040   -1.5680    1.0640 o         1 MOL     -0.504960
    163 C55         7.6970    0.7280   -1.0430 c3        1 MOL     -0.107371
    164 C56         7.1700    1.9930   -0.3000 c3        1 MOL      0.225149
    165 C57         7.2940    3.2880   -1.0990 c         1 MOL      0.415650
    166 O25         6.2950    4.0230   -1.0550 o         1 MOL     -0.655286
    167 O26         8.2910    3.5740   -1.8610 o         1 MOL     -0.655286
    168 H71         8.1120   -1.3470   -2.2780 hn        1 MOL      0.266472
    169 H72         6.1940   -0.6570   -0.3770 h1        1 MOL      0.075192
    170 H73         7.3660    0.8090   -2.0720 hc        1 MOL      0.046653
    171 H74         8.7810    0.7080   -0.9670 hc        1 MOL      0.046653
    172 H75         7.5900    2.0650    0.6980 hc        1 MOL     -0.068747
    173 H76         6.1290    1.8720   -0.0210 hc        1 MOL     -0.068747
    174 N15         7.1660   -0.4990    1.8930 n         1 MOL     -0.020445
    175 C58         7.4290   -0.4090    3.2690 c3        1 MOL     -0.283583
    176 H77         8.5070   -0.3780    3.4310 h1        1 MOL      0.097738
    177 H78         6.9770    0.4990    3.6680 h1        1 MOL      0.097738
    178 H79         7.0100   -1.2780    3.7760 h1        1 MOL      0.097738
    179 H80         6.3310   -0.0380    1.5610 hn        1 MOL      0.173819
    180 Ca1         4.6730    6.0270   -0.9590 Ca        1 MOL      1.737119
    181 O27         4.7620    8.5490   -2.0830 oh        1 MOL     -0.901963
    182 H81         3.9350    8.8460   -2.4660 ho        1 MOL      0.430872
    183 H82         5.3850    9.2550   -2.2800 ho        1 MOL      0.430872
    184 O28         4.5580    5.8300   -3.5840 oh        1 MOL     -0.901963
    185 H83         5.2720    5.2820   -3.9170 ho        1 MOL      0.430872
    186 H84         3.8920    5.7880   -4.2700 ho        1 MOL      0.430872
    187 O29         4.9120    5.1340    1.5380 oh        1 MOL     -0.901963
    188 H85         4.8980    4.2330    1.8510 ho        1 MOL      0.430872
    189 H86         4.7790    5.6660    2.3220 ho        1 MOL      0.430872
    190 O30         6.1320    7.8690    0.5680 oh        1 MOL     -0.901963
    191 H87         6.3460    8.7980    0.5160 ho        1 MOL      0.430872
    192 H88         6.5470    7.5690    1.3770 ho        1 MOL      0.430872
@<TRIPOS>BOND
     1    1    2 1   
     2    1    4 1   
     3    1    5 1   
     4    1    6 1   
     5    2    3 2   
     6    2    7 1   
     7    7    8 1   
     8    7   15 1   
     9    8    9 1   
    10    8   11 1   
    11    8   16 1   
    12    9   10 2   
    13    9   19 1   
    14   11   12 1   
    15   11   17 1   
    16   11   18 1   
    17   12   13 1   
    18   12   14 1   
    19   19   20 1   
    20   19   27 1   
    21   20   21 1   
    22   20   23 1   
    23   20   28 1   
    24   21   22 2   
    25   21   38 1   
    26   23   24 1   
    27   23   25 1   
    28   23   29 1   
    29   24   26 1   
    30   24   30 1   
    31   24   31 1   
    32   25   32 1   
    33   25   33 1   
    34   25   34 1   
    35   26   35 1   
    36   26   36 1   
    37   26   37 1   
    38   38   39 1   
    39   38   46 1   
    40   39   40 1   
    41   39   42 1   
    42   39   47 1   
    43   40   41 2   
    44   40   50 1   
    45   42   43 1   
    46   42   48 1   
    47   42   49 1   
    48   43   44 1   
    49   43   45 1   
    50   50   51 1   
    51   50   54 1   
    52   51   52 1   
    53   51   55 1   
    54   51   56 1   
    55   52   53 2   
    56   52   57 1   
    57   57   58 1   
    58   57   65 1   
    59   58   59 1   
    60   58   61 1   
    61   58   66 1   
    62   59   60 2   
    63   59   69 1   
    64   61   62 1   
    65   61   67 1   
    66   61   68 1   
    67   62   63 1   
    68   62   64 1   
    69   69   70 1   
    70   69   73 1   
    71   70   71 1   
    72   70   74 1   
    73   70   75 1   
    74   71   72 2   
    75   71   76 1   
    76   76   77 1   
    77   76   85 1   
    78   77   78 1   
    79   77   80 1   
    80   77   86 1   
    81   78   79 2   
    82   78   93 1   
    83   80   81 1   
    84   80   87 1   
    85   80   88 1   
    86   81   82 1   
    87   81   89 1   
    88   81   90 1   
    89   82   83 1   
    90   82   84 2   
    91   83   91 1   
    92   83   92 1   
    93   93   94 1   
    94   93  100 1   
    95   94   95 1   
    96   94   97 1   
    97   94  101 1   
    98   95   96 2   
    99   95  109 1   
   100   97   98 1   
   101   97   99 1   
   102   97  102 1   
   103   98  103 1   
   104   98  104 1   
   105   98  105 1   
   106   99  106 1   
   107   99  107 1   
   108   99  108 1   
   109  109  110 1   
   110  109  117 1   
   111  110  111 1   
   112  110  113 1   
   113  110  118 1   
   114  111  112 2   
   115  111  123 1   
   116  113  114 1   
   117  113  119 1   
   118  113  120 1   
   119  114  115 1   
   120  114  116 2   
   121  115  121 1   
   122  115  122 1   
   123  123  124 1   
   124  123  135 1   
   125  124  125 1   
   126  124  127 1   
   127  124  136 1   
   128  125  126 2   
   129  125  144 1   
   130  127  128 1   
   131  127  137 1   
   132  127  138 1   
   133  128  129 ar  
   134  128  130 ar  
   135  129  131 ar  
   136  129  139 1   
   137  130  132 ar  
   138  130  140 1   
   139  131  133 ar  
   140  131  141 1   
   141  132  133 ar  
   142  132  142 1   
   143  133  134 1   
   144  134  143 1   
   145  144  145 1   
   146  144  153 1   
   147  145  146 1   
   148  145  148 1   
   149  145  154 1   
   150  146  147 2   
   151  146  159 1   
   152  148  149 1   
   153  148  155 1   
   154  148  156 1   
   155  149  150 1   
   156  149  157 1   
   157  149  158 1   
   158  150  151 1   
   159  150  152 1   
   160  159  160 1   
   161  159  168 1   
   162  160  161 1   
   163  160  163 1   
   164  160  169 1   
   165  161  162 2   
   166  161  174 1   
   167  163  164 1   
   168  163  170 1   
   169  163  171 1   
   170  164  165 1   
   171  164  172 1   
   172  164  173 1   
   173  165  166 1   
   174  165  167 1   
   175  174  175 1   
   176  174  179 1   
   177  175  176 1   
   178  175  177 1   
   179  175  178 1   
   180  181  182 1   
   181  181  183 1   
   182  184  185 1   
   183  184  186 1   
   184  187  188 1   
   185  187  189 1   
   186  190  191 1   
   187  190  192 1   
@<TRIPOS>SUBSTRUCTURE
     1 MOL         1 TEMP              0 ****  ****    0 ROOT
