@<TRIPOS>MOLECULE
MOL
  189   185     1     0     0
SMALL
resp


@<TRIPOS>ATOM
      1 C1         -4.0110    3.7830    3.6510 c3        1 MOL     -0.368625
      2 C2         -4.8380    2.9680    2.6130 c         1 MOL      0.757113
      3 O1         -4.3350    2.6910    1.5360 o         1 MOL     -0.602807
      4 H1         -4.1680    3.3690    4.6470 hc        1 MOL      0.090917
      5 H2         -2.9520    3.7270    3.3970 hc        1 MOL      0.090917
      6 H3         -4.3330    4.8250    3.6350 hc        1 MOL      0.090917
      7 N1         -6.1130    2.5970    2.9450 n         1 MOL     -0.688387
      8 C3         -6.9820    1.6340    2.2770 c3        1 MOL      0.378987
      9 C4         -6.1700    0.4190    1.7420 c         1 MOL      0.238714
     10 O2         -5.9750    0.1970    0.5510 o         1 MOL     -0.423264
     11 C5         -7.9630    2.2690    1.3080 c3        1 MOL     -0.222970
     12 C6         -7.4630    3.3790    0.3400 c         1 MOL      0.665045
     13 O3         -6.3020    3.4440   -0.1510 o         1 MOL     -0.685601
     14 O4         -8.2980    4.2750    0.1030 o         1 MOL     -0.685601
     15 H4         -6.3930    2.9120    3.8670 hn        1 MOL      0.304865
     16 H5         -7.5610    1.2330    3.1080 h1        1 MOL      0.005031
     17 H6         -8.7800    2.6520    1.9250 hc        1 MOL      0.046125
     18 H7         -8.5260    1.5630    0.6920 hc        1 MOL      0.046125
     19 N2         -5.7050   -0.3770    2.7220 n         1 MOL     -0.463051
     20 C7         -5.0130   -1.7020    2.6540 c3        1 MOL      0.289698
     21 C8         -5.8950   -2.7620    1.9670 c         1 MOL      0.298880
     22 O5         -6.4700   -3.6110    2.6830 o         1 MOL     -0.560129
     23 C9         -3.5210   -1.6600    2.1630 c3        1 MOL      0.117838
     24 C10        -2.9770   -3.1430    2.0380 c3        1 MOL      0.103525
     25 C11        -2.7500   -0.6890    3.1380 c3        1 MOL     -0.371046
     26 C12        -3.0020   -3.9770    3.3530 c3        1 MOL     -0.364894
     27 H8         -6.0530   -0.1350    3.6370 hn        1 MOL      0.257477
     28 H9         -4.9820   -1.9700    3.7030 h1        1 MOL     -0.009752
     29 H10        -3.5310   -1.2100    1.1740 hc        1 MOL     -0.034109
     30 H11        -1.9400   -3.1400    1.6910 hc        1 MOL      0.007857
     31 H12        -3.6070   -3.6070    1.2810 hc        1 MOL      0.007857
     32 H13        -2.9350   -0.8900    4.1910 hc        1 MOL      0.083109
     33 H14        -1.7270   -0.9430    2.8820 hc        1 MOL      0.083109
     34 H15        -2.8880    0.3740    2.9270 hc        1 MOL      0.083109
     35 H16        -3.9990   -4.1600    3.7400 hc        1 MOL      0.078453
     36 H17        -2.5230   -4.9110    3.0380 hc        1 MOL      0.078453
     37 H18        -2.4860   -3.4360    4.1400 hc        1 MOL      0.078453
     38 N3         -6.1650   -2.6150    0.6530 n         1 MOL     -0.018555
     39 C13        -7.0960   -3.3810   -0.1690 c3        1 MOL      0.079152
     40 C14        -6.4840   -4.6370   -0.7420 c         1 MOL      0.528234
     41 O6         -7.1170   -5.6800   -0.6080 o         1 MOL     -0.576248
     42 C15        -7.8040   -2.5400   -1.2340 c3        1 MOL     -0.236702
     43 C16        -8.7100   -1.4510   -0.7660 c         1 MOL      0.736185
     44 O7         -9.3810   -1.5640    0.2860 o         1 MOL     -0.716247
     45 O8         -8.6600   -0.4350   -1.4850 o         1 MOL     -0.716247
     46 H19        -5.7620   -1.7970    0.2310 hn        1 MOL      0.234870
     47 H20        -7.9180   -3.7510    0.4430 h1        1 MOL      0.038613
     48 H21        -8.3470   -3.1290   -1.9680 hc        1 MOL      0.062435
     49 H22        -7.0010   -2.0460   -1.7880 hc        1 MOL      0.062435
     50 N4         -5.2350   -4.6720   -1.1930 n         1 MOL     -0.518931
     51 C17        -4.3950   -3.4850   -1.7130 c3        1 MOL      0.062036
     52 C18        -4.5940   -2.8590   -3.1180 c         1 MOL      0.551633
     53 O9         -5.5890   -3.1970   -3.7330 o         1 MOL     -0.545982
     54 H23        -4.9530   -5.5490   -1.6030 hn        1 MOL      0.297009
     55 H24        -3.3310   -3.7300   -1.6040 h1        1 MOL      0.018629
     56 H25        -4.5140   -2.6510   -1.0320 h1        1 MOL      0.018629
     57 N5         -3.7200   -1.9750   -3.6950 n         1 MOL     -0.522716
     58 C19        -2.4190   -1.4810   -3.1270 c3        1 MOL      0.175463
     59 C20        -2.5150   -0.8630   -1.7010 c         1 MOL      0.051940
     60 O10        -3.5040   -0.3730   -1.2210 o         1 MOL     -0.499307
     61 C21        -1.9000   -0.3680   -4.0270 c3        1 MOL     -0.298947
     62 C22        -2.9010    0.7260   -4.2470 c         1 MOL      0.795292
     63 O11        -3.7110    0.7130   -5.1900 o         1 MOL     -0.714395
     64 O12        -3.0250    1.6030   -3.3850 o         1 MOL     -0.714395
     65 H26        -4.0170   -1.5160   -4.5430 hn        1 MOL      0.311310
     66 H27        -1.7340   -2.3280   -3.0750 h1        1 MOL      0.049500
     67 H28        -1.5030   -0.6770   -5.0020 hc        1 MOL      0.071882
     68 H29        -1.0540    0.1540   -3.5660 hc        1 MOL      0.071882
     69 N6         -1.4330   -0.8830   -0.9510 n         1 MOL     -0.037160
     70 C23        -0.1000   -1.3130   -1.2730 c3        1 MOL      0.149247
     71 C24         0.2350   -2.7940   -0.9410 c         1 MOL      0.401120
     72 O13        -0.5770   -3.5770   -0.4470 o         1 MOL     -0.480717
     73 H30        -1.4830   -0.4540   -0.0270 hn        1 MOL      0.186076
     74 H31         0.5680   -0.6600   -0.7140 h1        1 MOL     -0.018772
     75 H32         0.0560   -1.1930   -2.3410 h1        1 MOL     -0.018772
     76 N7          1.5200   -3.1350   -1.1530 n         1 MOL     -0.285349
     77 C25         2.0870   -4.4410   -0.7550 c3        1 MOL      0.016033
     78 C26         2.6070   -4.5500    0.7160 c         1 MOL      0.424573
     79 O14         2.7790   -5.6330    1.2440 o         1 MOL     -0.495212
     80 C27         3.1650   -4.8790   -1.7950 c3        1 MOL     -0.048392
     81 C28         4.1990   -3.8150   -2.2320 c3        1 MOL     -0.089214
     82 C29         5.4850   -4.4330   -2.7360 c         1 MOL      0.603255
     83 N8          6.5880   -3.9110   -2.2260 n         1 MOL     -0.708854
     84 O15         5.6510   -5.2790   -3.6230 o         1 MOL     -0.576303
     85 H33         2.2090   -2.5300   -1.5990 hn        1 MOL      0.208983
     86 H34         1.2870   -5.1590   -0.9190 h1        1 MOL      0.103696
     87 H35         2.6530   -5.1340   -2.7220 hc        1 MOL      0.033107
     88 H36         3.6840   -5.7770   -1.4440 hc        1 MOL      0.033107
     89 H37         4.3630   -3.1100   -1.4100 hc        1 MOL      0.035274
     90 H38         3.7740   -3.2120   -3.0340 hc        1 MOL      0.035274
     91 H39         6.5140   -3.1590   -1.5610 hn        1 MOL      0.329255
     92 H40         7.4710   -4.3360   -2.4820 hn        1 MOL      0.329255
     93 N9          2.8750   -3.3540    1.2980 n         1 MOL     -0.204069
     94 C30         3.1100   -3.1660    2.7790 c3        1 MOL     -0.381934
     95 C31         4.4130   -2.4660    3.1990 c         1 MOL      0.709116
     96 O16         4.8620   -2.7080    4.3260 o         1 MOL     -0.565565
     97 C32         1.8860   -2.7730    3.5780 c3        1 MOL      0.348053
     98 C33         0.8510   -3.8780    3.5800 c3        1 MOL     -0.286102
     99 C34         1.2960   -1.4320    3.0410 c3        1 MOL     -0.286102
    100 H41         2.9680   -2.5310    0.7170 hn        1 MOL      0.205181
    101 H42         3.2750   -4.1730    3.1560 h1        1 MOL      0.151006
    102 H43         2.2690   -2.6110    4.5900 hc        1 MOL     -0.008545
    103 H44         1.4110   -4.6870    4.0430 hc        1 MOL      0.066189
    104 H45         0.0380   -3.6000    4.2570 hc        1 MOL      0.066189
    105 H46         0.5310   -4.2420    2.6080 hc        1 MOL      0.066189
    106 H47         2.0600   -0.6570    3.1130 hc        1 MOL      0.066189
    107 H48         0.9620   -1.5830    2.0090 hc        1 MOL      0.066189
    108 H49         0.4790   -1.1050    3.6670 hc        1 MOL      0.066189
    109 N10         5.0080   -1.6600    2.3070 n         1 MOL     -0.564070
    110 C35         6.3340   -1.0110    2.5950 c3        1 MOL      0.105577
    111 C36         6.5620    0.3100    1.8230 c         1 MOL      0.512704
    112 O17         7.4430    1.0560    2.2040 o         1 MOL     -0.520506
    113 C37         7.4220   -2.0790    2.2680 c3        1 MOL     -0.380854
    114 C38         7.3320   -2.7000    0.8540 c         1 MOL      0.699438
    115 N11         8.3720   -3.5080    0.5870 n         1 MOL     -0.802077
    116 O18         6.3870   -2.5500    0.1210 o         1 MOL     -0.496261
    117 H50         4.6710   -1.5540    1.3580 hn        1 MOL      0.314652
    118 H51         6.4410   -0.6860    3.6310 h1        1 MOL      0.101566
    119 H52         7.1550   -2.8990    2.9470 hc        1 MOL      0.130484
    120 H53         8.4420   -1.7370    2.4590 hc        1 MOL      0.130484
    121 H54         9.2200   -3.4240    1.1300 hn        1 MOL      0.360305
    122 H55         8.3990   -4.0460   -0.2620 hn        1 MOL      0.360305
    123 N12         5.8160    0.5880    0.6820 n         1 MOL     -0.475517
    124 C39         5.9980    1.7810   -0.1760 c3        1 MOL      0.191630
    125 C40         4.7310    2.4980   -0.3340 c         1 MOL      0.531238
    126 O19         3.6310    1.9500   -0.3040 o         1 MOL     -0.493224
    127 C41         6.5500    1.3620   -1.5520 c3        1 MOL     -0.009787
    128 C42         7.7290    0.4620   -1.5040 ca        1 MOL      0.005999
    129 C43         7.8220   -0.6940   -2.3180 ca        1 MOL     -0.134309
    130 C44         8.7310    0.5960   -0.5600 ca        1 MOL     -0.134309
    131 C45         8.9380   -1.5430   -2.1800 ca        1 MOL     -0.241564
    132 C46         9.8100   -0.3240   -0.3250 ca        1 MOL     -0.241564
    133 C47         9.9060   -1.3980   -1.1630 ca        1 MOL      0.342774
    134 O20        10.9470   -2.2370   -0.9630 oh        1 MOL     -0.564404
    135 H56         5.0270   -0.0110    0.4590 hn        1 MOL      0.227692
    136 H57         6.7460    2.4240    0.2800 h1        1 MOL      0.045961
    137 H58         6.6870    2.2690   -2.1450 hc        1 MOL      0.045037
    138 H59         5.7440    0.7420   -1.9550 hc        1 MOL      0.045037
    139 H60         6.9190   -0.9060   -2.8560 ha        1 MOL      0.118303
    140 H61         8.7320    1.3650    0.2070 ha        1 MOL      0.118303
    141 H62         8.9770   -2.4650   -2.7430 ha        1 MOL      0.124236
    142 H63        10.5240   -0.1500    0.4600 ha        1 MOL      0.124236
    143 H64        11.5650   -2.0050   -0.2650 ho        1 MOL      0.396710
    144 N13         4.9530    3.8120   -0.5300 n         1 MOL     -0.703088
    145 C48         3.9490    4.8400   -0.7610 c3        1 MOL      0.287462
    146 C49         2.8290    5.0250    0.3090 c         1 MOL      0.276563
    147 O21         2.5750    6.1460    0.6350 o         1 MOL     -0.490985
    148 C50         3.3340    4.5660   -2.2060 c3        1 MOL     -0.157257
    149 C51         4.3990    4.7910   -3.2640 c3        1 MOL     -0.134840
    150 C52         4.8800    6.2350   -3.3570 c         1 MOL      0.674598
    151 O22         5.9980    6.4960   -2.8640 o         1 MOL     -0.723427
    152 O23         4.1700    7.0920   -3.9740 o         1 MOL     -0.723427
    153 H65         5.8690    4.2110   -0.3450 hn        1 MOL      0.355540
    154 H66         4.5150    5.7730   -0.6850 h1        1 MOL      0.060204
    155 H67         2.4600    5.2170   -2.2360 hc        1 MOL      0.088795
    156 H68         2.9560    3.5430   -2.2060 hc        1 MOL      0.088795
    157 H69         4.0120    4.5050   -4.2460 hc        1 MOL      0.010996
    158 H70         5.1930    4.0520   -3.1160 hc        1 MOL      0.010996
    159 N14         2.1180    4.0550    0.8920 n         1 MOL     -0.111157
    160 C53         1.0170    4.1670    1.8220 c3        1 MOL      0.024066
    161 C54         1.4030    4.6460    3.2450 c         1 MOL      0.394028
    162 O24         0.6370    5.3340    3.9310 o         1 MOL     -0.515560
    163 C55         0.4300    2.7760    1.9730 c3        1 MOL     -0.048145
    164 C56         0.1760    1.8990    0.6610 c3        1 MOL      0.187585
    165 C57        -0.9000    2.5480   -0.2310 c         1 MOL      0.579580
    166 O25        -2.0090    1.9860   -0.4110 o         1 MOL     -0.656817
    167 O26        -0.7200    3.6390   -0.8740 o         1 MOL     -0.656817
    168 H71         2.3520    3.1530    0.5050 hn        1 MOL      0.084088
    169 H72         0.3460    4.9480    1.4490 h1        1 MOL      0.127846
    170 H73        -0.4870    2.8410    2.5720 hc        1 MOL     -0.006873
    171 H74         1.0830    2.0780    2.5060 hc        1 MOL     -0.006873
    172 H75        -0.1040    0.8920    0.9790 hc        1 MOL     -0.071301
    173 H76         1.1160    1.7920    0.1170 hc        1 MOL     -0.071301
    174 N15         2.6580    4.3540    3.6880 n         1 MOL     -0.194742
    175 C58         3.3080    5.0870    4.7420 c3        1 MOL     -0.333149
    176 H77         3.0830    4.6200    5.7010 h1        1 MOL      0.123071
    177 H78         4.3860    5.0800    4.5790 h1        1 MOL      0.123071
    178 H79         2.9460    6.1150    4.7470 h1        1 MOL      0.123071
    179 H80         3.0800    3.5580    3.2080 hn        1 MOL      0.205433
    180 Ca1        -4.4060    2.0600   -1.1290 Ca        1 MOL      1.788733
    181 O27        -6.3460    0.7940   -2.3230 oh        1 MOL     -0.820151
    182 H81        -6.2020    0.5380   -3.2390 ho        1 MOL      0.388165
    183 H82        -7.0280    0.2100   -2.0150 ho        1 MOL      0.388165
    184 O28        -3.3360    4.5660   -0.9730 oh        1 MOL     -0.820151
    185 H83        -2.3840    4.5670   -1.0280 ho        1 MOL      0.388165
    186 H84        -3.5740    5.4780   -0.7870 ho        1 MOL      0.388165
    187 O29        -5.9030    3.8730   -3.2490 oh        1 MOL     -0.820151
    188 H85        -6.7870    4.1780   -3.0260 ho        1 MOL      0.388165
    189 H86        -6.0090    3.4040   -4.0730 ho        1 MOL      0.388165
@<TRIPOS>BOND
     1    1    2 1   
     2    1    4 1   
     3    1    5 1   
     4    1    6 1   
     5    2    3 2   
     6    2    7 1   
     7    7    8 1   
     8    7   15 1   
     9    8    9 1   
    10    8   11 1   
    11    8   16 1   
    12    9   10 2   
    13    9   19 1   
    14   11   12 1   
    15   11   17 1   
    16   11   18 1   
    17   12   13 1   
    18   12   14 1   
    19   19   20 1   
    20   19   27 1   
    21   20   21 1   
    22   20   23 1   
    23   20   28 1   
    24   21   22 2   
    25   21   38 1   
    26   23   24 1   
    27   23   25 1   
    28   23   29 1   
    29   24   26 1   
    30   24   30 1   
    31   24   31 1   
    32   25   32 1   
    33   25   33 1   
    34   25   34 1   
    35   26   35 1   
    36   26   36 1   
    37   26   37 1   
    38   38   39 1   
    39   38   46 1   
    40   39   40 1   
    41   39   42 1   
    42   39   47 1   
    43   40   41 2   
    44   40   50 1   
    45   42   43 1   
    46   42   48 1   
    47   42   49 1   
    48   43   44 1   
    49   43   45 1   
    50   50   51 1   
    51   50   54 1   
    52   51   52 1   
    53   51   55 1   
    54   51   56 1   
    55   52   53 2   
    56   52   57 1   
    57   57   58 1   
    58   57   65 1   
    59   58   59 1   
    60   58   61 1   
    61   58   66 1   
    62   59   60 2   
    63   59   69 1   
    64   61   62 1   
    65   61   67 1   
    66   61   68 1   
    67   62   63 1   
    68   62   64 1   
    69   69   70 1   
    70   69   73 1   
    71   70   71 1   
    72   70   74 1   
    73   70   75 1   
    74   71   72 2   
    75   71   76 1   
    76   76   77 1   
    77   76   85 1   
    78   77   78 1   
    79   77   80 1   
    80   77   86 1   
    81   78   79 2   
    82   78   93 1   
    83   80   81 1   
    84   80   87 1   
    85   80   88 1   
    86   81   82 1   
    87   81   89 1   
    88   81   90 1   
    89   82   83 1   
    90   82   84 2   
    91   83   91 1   
    92   83   92 1   
    93   93   94 1   
    94   93  100 1   
    95   94   95 1   
    96   94   97 1   
    97   94  101 1   
    98   95   96 2   
    99   95  109 1   
   100   97   98 1   
   101   97   99 1   
   102   97  102 1   
   103   98  103 1   
   104   98  104 1   
   105   98  105 1   
   106   99  106 1   
   107   99  107 1   
   108   99  108 1   
   109  109  110 1   
   110  109  117 1   
   111  110  111 1   
   112  110  113 1   
   113  110  118 1   
   114  111  112 2   
   115  111  123 1   
   116  113  114 1   
   117  113  119 1   
   118  113  120 1   
   119  114  115 1   
   120  114  116 2   
   121  115  121 1   
   122  115  122 1   
   123  123  124 1   
   124  123  135 1   
   125  124  125 1   
   126  124  127 1   
   127  124  136 1   
   128  125  126 2   
   129  125  144 1   
   130  127  128 1   
   131  127  137 1   
   132  127  138 1   
   133  128  129 ar  
   134  128  130 ar  
   135  129  131 ar  
   136  129  139 1   
   137  130  132 ar  
   138  130  140 1   
   139  131  133 ar  
   140  131  141 1   
   141  132  133 ar  
   142  132  142 1   
   143  133  134 1   
   144  134  143 1   
   145  144  145 1   
   146  144  153 1   
   147  145  146 1   
   148  145  148 1   
   149  145  154 1   
   150  146  147 2   
   151  146  159 1   
   152  148  149 1   
   153  148  155 1   
   154  148  156 1   
   155  149  150 1   
   156  149  157 1   
   157  149  158 1   
   158  150  151 1   
   159  150  152 1   
   160  159  160 1   
   161  159  168 1   
   162  160  161 1   
   163  160  163 1   
   164  160  169 1   
   165  161  162 2   
   166  161  174 1   
   167  163  164 1   
   168  163  170 1   
   169  163  171 1   
   170  164  165 1   
   171  164  172 1   
   172  164  173 1   
   173  165  166 1   
   174  165  167 1   
   175  174  175 1   
   176  174  179 1   
   177  175  176 1   
   178  175  177 1   
   179  175  178 1   
   180  181  182 1   
   181  181  183 1   
   182  184  185 1   
   183  184  186 1   
   184  187  188 1   
   185  187  189 1   
@<TRIPOS>SUBSTRUCTURE
     1 MOL         1 TEMP              0 ****  ****    0 ROOT
