@<TRIPOS>MOLECULE
MOL
  181   177     1     0     0
SMALL
resp


@<TRIPOS>ATOM
      1 C1          1.8110   -1.5380    5.4250 c3        1 MOL     -0.233086
      2 C2          2.7850   -1.1610    4.3200 c         1 MOL      0.733874
      3 O1          2.6960   -0.1070    3.7310 o         1 MOL     -0.555496
      4 H1          2.0350   -2.5440    5.7790 hc        1 MOL      0.047617
      5 H2          1.9060   -0.8340    6.2510 hc        1 MOL      0.047617
      6 H3          0.7920   -1.5090    5.0380 hc        1 MOL      0.047617
      7 N1          3.8130   -1.9980    4.1550 n         1 MOL     -0.598592
      8 C3          5.0410   -1.4790    3.5010 c3        1 MOL      0.165300
      9 C4          5.4810   -2.3780    2.3490 c         1 MOL      0.551236
     10 O2          6.5010   -2.1190    1.7570 o         1 MOL     -0.477394
     11 C5          6.2490   -1.2080    4.4640 c3        1 MOL     -0.144113
     12 C6          7.2490   -0.1390    3.9900 c         1 MOL      0.689484
     13 O3          8.4910   -0.4200    4.0170 o         1 MOL     -0.693033
     14 O4          6.8390    1.0090    3.7000 o         1 MOL     -0.693033
     15 H4          3.8410   -2.8550    4.6780 hn        1 MOL      0.292867
     16 H5          5.0090   -0.5320    2.9750 h1        1 MOL      0.048787
     17 H6          6.8280   -2.0950    4.7160 hc        1 MOL     -0.005707
     18 H7          5.8000   -0.9070    5.4150 hc        1 MOL     -0.005707
     19 N2          4.5980   -3.3310    1.9920 n         1 MOL     -0.478061
     20 C7          4.5590   -4.0620    0.7340 c3        1 MOL     -0.080005
     21 C8          4.4030   -3.1570   -0.5050 c         1 MOL      0.552186
     22 O5          3.3040   -2.6560   -0.7740 o         1 MOL     -0.605482
     23 C9          5.6980   -5.0780    0.7160 c3        1 MOL     -0.528308
     24 H8          3.7500   -3.4580    2.5340 hn        1 MOL      0.314555
     25 H9          3.6260   -4.6230    0.8220 h1        1 MOL      0.173249
     26 H10         5.8490   -5.6010    1.6620 hc        1 MOL      0.150079
     27 H11         5.6210   -5.7800   -0.1040 hc        1 MOL      0.150079
     28 H12         6.5970   -4.4590    0.6520 hc        1 MOL      0.150079
     29 N3          5.4700   -2.8230   -1.2520 n         1 MOL     -0.255927
     30 C10         5.3870   -1.8370   -2.2910 c3        1 MOL     -0.013110
     31 C11         5.8180   -0.4300   -1.8340 c         1 MOL      0.495666
     32 O6          6.1170    0.3980   -2.7000 o         1 MOL     -0.531672
     33 C12         6.1120   -2.3940   -3.5930 c3        1 MOL     -0.441162
     34 C13         7.5010   -2.9150   -3.1480 c         1 MOL      0.894068
     35 O7          8.3440   -2.2070   -2.5410 o         1 MOL     -0.743100
     36 O8          7.8880   -3.9780   -3.5510 o         1 MOL     -0.743100
     37 H13         6.3410   -3.3090   -1.0660 hn        1 MOL      0.203325
     38 H14         4.3260   -1.6970   -2.5230 h1        1 MOL      0.170417
     39 H15         6.2750   -1.6070   -4.3240 hc        1 MOL      0.061309
     40 H16         5.4410   -3.1930   -3.9390 hc        1 MOL      0.061309
     41 N4          5.8000   -0.0920   -0.5330 n         1 MOL     -0.244147
     42 C14         6.1540    1.2710   -0.0580 c3        1 MOL      0.118253
     43 C15         5.2330    2.3480   -0.7900 c         1 MOL      0.532139
     44 O9          5.7660    3.4070   -1.1940 o         1 MOL     -0.536463
     45 H17         5.6770   -0.8250    0.1490 hn        1 MOL      0.182563
     46 H18         7.2130    1.4930   -0.1810 h1        1 MOL      0.031573
     47 H19         6.0290    1.4010    1.0250 h1        1 MOL      0.031573
     48 N5          3.9850    1.8940   -1.0040 n         1 MOL     -0.434729
     49 C16         3.1210    2.6000   -1.9460 c3        1 MOL     -0.030534
     50 C17         2.6880    4.0300   -1.4870 c         1 MOL      0.510583
     51 O10         2.5340    4.2000   -0.2730 o         1 MOL     -0.465882
     52 C18         1.8250    1.7630   -2.1660 c3        1 MOL     -0.104415
     53 C19         2.0790    0.4950   -2.9880 c         1 MOL      0.481792
     54 N6          2.5540    0.5660   -4.2080 n         1 MOL     -0.768240
     55 O11         1.9780   -0.5940   -2.4940 o         1 MOL     -0.541285
     56 H20         3.6770    0.9910   -0.6720 hn        1 MOL      0.282920
     57 H21         3.5800    2.7920   -2.9160 h1        1 MOL      0.065377
     58 H22         1.1130    2.3700   -2.7290 hc        1 MOL      0.112613
     59 H23         1.3650    1.4610   -1.2300 hc        1 MOL      0.112613
     60 H24         2.5970    1.4500   -4.6860 hn        1 MOL      0.369619
     61 H25         2.8170   -0.3380   -4.5750 hn        1 MOL      0.369619
     62 N7          2.5290    4.9950   -2.3940 n         1 MOL     -0.397318
     63 C20         2.1460    6.3880   -2.0860 c3        1 MOL     -0.161133
     64 C21         0.6580    6.6950   -1.9790 c         1 MOL      0.650023
     65 O12        -0.0480    6.4920   -2.9010 o         1 MOL     -0.534444
     66 H26         2.5370    4.7400   -3.3680 hn        1 MOL      0.271787
     67 H27         2.5450    7.0790   -2.8340 h1        1 MOL      0.106671
     68 H28         2.6430    6.6200   -1.1510 h1        1 MOL      0.106671
     69 N8          0.2670    7.2620   -0.8550 n         1 MOL     -0.615162
     70 C22        -1.0740    7.8630   -0.6060 c3        1 MOL     -0.031768
     71 C23        -1.9020    6.9380    0.3000 c         1 MOL      0.416267
     72 O13        -3.0710    7.1580    0.5490 o         1 MOL     -0.584219
     73 C24        -1.0140    9.2840   -0.0890 c3        1 MOL      0.466763
     74 C25        -0.7430    9.4360    1.3790 c3        1 MOL     -0.269153
     75 O14        -0.2090   10.1170   -0.8930 oh        1 MOL     -0.620245
     76 H29         0.9350    7.5150   -0.1470 hn        1 MOL      0.303557
     77 H30        -1.7470    7.8580   -1.4630 h1        1 MOL      0.120169
     78 H31        -2.0230    9.6570   -0.2430 h1        1 MOL      0.007988
     79 H32         0.6980    9.9830   -0.6060 ho        1 MOL      0.367532
     80 H33        -0.0740    8.7390    1.8800 hc        1 MOL      0.054888
     81 H34        -0.3080   10.4400    1.4650 hc        1 MOL      0.054888
     82 H35        -1.6510    9.4470    1.9760 hc        1 MOL      0.054888
     83 N9         -1.3360    5.8180    0.6770 n         1 MOL     -0.017229
     84 C26        -1.9690    4.6140    1.2270 c3        1 MOL     -0.088108
     85 C27        -1.7240    3.3670    0.3460 c         1 MOL      0.496398
     86 O15        -0.7930    3.2780   -0.4630 o         1 MOL     -0.523436
     87 C28        -1.5880    4.3680    2.7140 c3        1 MOL      0.088561
     88 C29        -0.2080    3.5880    2.7810 c3        1 MOL     -0.088346
     89 C30        -1.5670    5.6640    3.4880 c3        1 MOL     -0.217532
     90 C31         0.4790    3.5240    4.1700 c3        1 MOL     -0.304582
     91 H36        -0.3610    5.7570    0.4060 hn        1 MOL      0.130306
     92 H37        -3.0510    4.6580    1.1950 h1        1 MOL      0.063447
     93 H38        -2.3540    3.6970    3.1080 hc        1 MOL      0.002385
     94 H39         0.5110    4.0340    2.0920 hc        1 MOL      0.103191
     95 H40        -0.3840    2.5670    2.4350 hc        1 MOL      0.103191
     96 H41        -1.4520    5.4110    4.5450 hc        1 MOL      0.056125
     97 H42        -0.7970    6.3050    3.0600 hc        1 MOL      0.056125
     98 H43        -2.5130    6.2020    3.4240 hc        1 MOL      0.056125
     99 H44         1.2580    4.2930    4.1380 hc        1 MOL      0.081342
    100 H45        -0.1840    3.8060    4.9950 hc        1 MOL      0.081342
    101 H46         0.9590    2.5550    4.2910 hc        1 MOL      0.081342
    102 N10        -2.4180    2.2760    0.6390 n         1 MOL     -0.585063
    103 C32        -2.2910    0.9700    0.0130 c3        1 MOL      0.262177
    104 C33        -3.5430    0.1630   -0.2200 c         1 MOL      0.536750
    105 O16        -3.5430   -1.0480    0.0650 o         1 MOL     -0.516474
    106 C34        -1.2870    0.0880    0.7470 c3        1 MOL     -0.012833
    107 C35        -0.6790   -0.9320   -0.1570 c         1 MOL      0.430782
    108 O17         0.1990   -1.6910    0.3570 o         1 MOL     -0.714168
    109 O18        -0.9160   -0.9290   -1.3930 o         1 MOL     -0.714168
    110 H47        -3.0370    2.2660    1.4420 hn        1 MOL      0.280768
    111 H48        -1.9030    1.1830   -0.9830 h1        1 MOL      0.026563
    112 H49        -1.7360   -0.3210    1.6490 hc        1 MOL      0.053213
    113 H50        -0.5060    0.7670    1.0890 hc        1 MOL      0.053213
    114 N11        -4.5940    0.7950   -0.6980 n         1 MOL     -0.673298
    115 C36        -5.7850    0.0310   -1.0460 c3        1 MOL      0.434406
    116 C37        -6.3810   -1.0100    0.0030 c         1 MOL      0.344448
    117 O19        -6.5250   -0.5930    1.1960 o         1 MOL     -0.537854
    118 C38        -6.9280    0.9360   -1.6670 c3        1 MOL     -0.375110
    119 C39        -8.2650    0.2230   -1.8370 ca        1 MOL      0.035262
    120 C40        -8.6290   -0.3760   -3.0150 ca        1 MOL     -0.034135
    121 C41        -9.1210    0.1200   -0.7330 ca        1 MOL     -0.034135
    122 C42        -9.8950   -0.9910   -3.2350 ca        1 MOL     -0.243934
    123 C43       -10.3140   -0.6620   -0.8680 ca        1 MOL     -0.243934
    124 C44       -10.7280   -1.1540   -2.1010 ca        1 MOL     -0.028500
    125 H51        -4.5000    1.7490   -1.0230 hn        1 MOL      0.342315
    126 H52        -5.4560   -0.5290   -1.9220 h1        1 MOL      0.017922
    127 H53        -6.5430    1.3160   -2.6070 hc        1 MOL      0.119105
    128 H54        -7.1370    1.7870   -1.0040 hc        1 MOL      0.119105
    129 H55        -7.9650   -0.2590   -3.8550 ha        1 MOL      0.078596
    130 H56        -8.7630    0.6910    0.1090 ha        1 MOL      0.078596
    131 H57       -10.0630   -1.5430   -4.1390 ha        1 MOL      0.136585
    132 H58       -10.9290   -0.8540    0.0030 ha        1 MOL      0.136585
    133 H59       -11.5820   -1.8170   -2.0860 ha        1 MOL      0.094418
    134 N12        -6.6680   -2.2890   -0.4050 n         1 MOL      0.047606
    135 C45        -7.0750   -3.3670    0.5230 c3        1 MOL      0.076342
    136 C46        -6.0620   -3.7330    1.5800 c         1 MOL      0.198466
    137 O20        -6.4330   -4.4090    2.5140 o         1 MOL     -0.474786
    138 C47        -7.4410   -4.5880   -0.2990 c3        1 MOL     -0.231737
    139 C48        -6.6610   -4.3640   -1.5730 c3        1 MOL      0.220018
    140 C49        -6.6200   -2.8730   -1.7390 c3        1 MOL     -0.163807
    141 H60        -7.9830   -2.9790    0.9900 h1        1 MOL      0.049384
    142 H61        -7.1610   -5.5530    0.1340 hc        1 MOL      0.085584
    143 H62        -8.4940   -4.5670   -0.5610 hc        1 MOL      0.085584
    144 H63        -5.6330   -4.7190   -1.4510 hc        1 MOL     -0.039886
    145 H64        -7.0790   -4.7920   -2.4870 hc        1 MOL     -0.039886
    146 H65        -5.7730   -2.4450   -2.2740 h1        1 MOL      0.027227
    147 H66        -7.5460   -2.5570   -2.2210 h1        1 MOL      0.027227
    148 N13        -4.7800   -3.3060    1.4030 n         1 MOL      0.124935
    149 C50        -3.8090   -3.5540    2.4680 c3        1 MOL     -0.283687
    150 C51        -3.7860   -2.5940    3.6150 c         1 MOL      0.413363
    151 O21        -3.4090   -2.9750    4.7560 o         1 MOL     -0.543140
    152 C52        -2.3700   -3.6300    1.8450 c3        1 MOL      0.087405
    153 C53        -2.0400   -5.0180    1.3070 c3        1 MOL     -0.124225
    154 C54        -0.6770   -5.0390    0.5950 c         1 MOL      0.702762
    155 O22         0.2870   -5.5780    1.1650 o         1 MOL     -0.733932
    156 O23        -0.6080   -4.4440   -0.5530 o         1 MOL     -0.733932
    157 H67        -4.4760   -2.8460    0.5640 hn        1 MOL      0.100864
    158 H68        -3.9750   -4.5040    2.9800 h1        1 MOL      0.147458
    159 H69        -1.5520   -3.2950    2.4940 hc        1 MOL      0.065980
    160 H70        -2.2990   -2.9350    1.0150 hc        1 MOL      0.065980
    161 H71        -2.7660   -5.3940    0.5780 hc        1 MOL     -0.005964
    162 H72        -2.1400   -5.7560    2.1080 hc        1 MOL     -0.005964
    163 N14        -4.2160   -1.3620    3.3500 n         1 MOL     -0.133244
    164 C55        -4.2910   -0.2960    4.3750 c3        1 MOL     -0.176678
    165 H73        -4.1520   -0.7340    5.3640 h1        1 MOL      0.079073
    166 H74        -3.5090    0.4410    4.1920 h1        1 MOL      0.079073
    167 H75        -5.2660    0.1890    4.3260 h1        1 MOL      0.079073
    168 H76        -4.5120   -1.1260    2.4160 hn        1 MOL      0.183424
    169 Ca1         0.8580   -2.8890   -2.0260 Ca        1 MOL      1.796787
    170 O24         2.7310   -3.3380   -3.8300 oh        1 MOL     -0.844872
    171 H77         2.9880   -4.2180   -4.0900 ho        1 MOL      0.410008
    172 H78         2.9170   -2.7960   -4.6020 ho        1 MOL      0.410008
    173 O25        -0.1000   -4.9440   -3.8690 oh        1 MOL     -0.844872
    174 H79         0.3670   -5.7590   -4.0380 ho        1 MOL      0.410008
    175 H80        -0.8010   -4.9250   -4.5260 ho        1 MOL      0.410008
    176 O26         2.0410   -5.3760   -1.1410 oh        1 MOL     -0.844872
    177 H81         1.6600   -5.8750   -0.4110 ho        1 MOL      0.410008
    178 H82         2.6930   -5.9690   -1.5220 ho        1 MOL      0.410008
    179 O27         0.3060   -1.8400   -4.3890 oh        1 MOL     -0.844872
    180 H83        -0.5040   -1.9340   -4.9020 ho        1 MOL      0.410008
    181 H84         0.6110   -0.9600   -4.5780 ho        1 MOL      0.410008
@<TRIPOS>BOND
     1    1    2 1   
     2    1    4 1   
     3    1    5 1   
     4    1    6 1   
     5    2    3 2   
     6    2    7 1   
     7    7    8 1   
     8    7   15 1   
     9    8    9 1   
    10    8   11 1   
    11    8   16 1   
    12    9   10 2   
    13    9   19 1   
    14   11   12 1   
    15   11   17 1   
    16   11   18 1   
    17   12   13 1   
    18   12   14 1   
    19   19   20 1   
    20   19   24 1   
    21   20   21 1   
    22   20   23 1   
    23   20   25 1   
    24   21   22 2   
    25   21   29 1   
    26   23   26 1   
    27   23   27 1   
    28   23   28 1   
    29   29   30 1   
    30   29   37 1   
    31   30   31 1   
    32   30   33 1   
    33   30   38 1   
    34   31   32 2   
    35   31   41 1   
    36   33   34 1   
    37   33   39 1   
    38   33   40 1   
    39   34   35 1   
    40   34   36 1   
    41   41   42 1   
    42   41   45 1   
    43   42   43 1   
    44   42   46 1   
    45   42   47 1   
    46   43   44 2   
    47   43   48 1   
    48   48   49 1   
    49   48   56 1   
    50   49   50 1   
    51   49   52 1   
    52   49   57 1   
    53   50   51 2   
    54   50   62 1   
    55   52   53 1   
    56   52   58 1   
    57   52   59 1   
    58   53   54 1   
    59   53   55 2   
    60   54   60 1   
    61   54   61 1   
    62   62   63 1   
    63   62   66 1   
    64   63   64 1   
    65   63   67 1   
    66   63   68 1   
    67   64   65 2   
    68   64   69 1   
    69   69   70 1   
    70   69   76 1   
    71   70   71 1   
    72   70   73 1   
    73   70   77 1   
    74   71   72 2   
    75   71   83 1   
    76   73   74 1   
    77   73   75 1   
    78   73   78 1   
    79   74   80 1   
    80   74   81 1   
    81   74   82 1   
    82   75   79 1   
    83   83   84 1   
    84   83   91 1   
    85   84   85 1   
    86   84   87 1   
    87   84   92 1   
    88   85   86 2   
    89   85  102 1   
    90   87   88 1   
    91   87   89 1   
    92   87   93 1   
    93   88   90 1   
    94   88   94 1   
    95   88   95 1   
    96   89   96 1   
    97   89   97 1   
    98   89   98 1   
    99   90   99 1   
   100   90  100 1   
   101   90  101 1   
   102  102  103 1   
   103  102  110 1   
   104  103  104 1   
   105  103  106 1   
   106  103  111 1   
   107  104  105 2   
   108  104  114 1   
   109  106  107 1   
   110  106  112 1   
   111  106  113 1   
   112  107  108 1   
   113  107  109 1   
   114  114  115 1   
   115  114  125 1   
   116  115  116 1   
   117  115  118 1   
   118  115  126 1   
   119  116  117 2   
   120  116  134 1   
   121  118  119 1   
   122  118  127 1   
   123  118  128 1   
   124  119  120 ar  
   125  119  121 ar  
   126  120  122 ar  
   127  120  129 1   
   128  121  123 ar  
   129  121  130 1   
   130  122  124 ar  
   131  122  131 1   
   132  123  124 ar  
   133  123  132 1   
   134  124  133 1   
   135  134  135 1   
   136  134  140 1   
   137  135  136 1   
   138  135  138 1   
   139  135  141 1   
   140  136  137 2   
   141  136  148 1   
   142  138  139 1   
   143  138  142 1   
   144  138  143 1   
   145  139  140 1   
   146  139  144 1   
   147  139  145 1   
   148  140  146 1   
   149  140  147 1   
   150  148  149 1   
   151  148  157 1   
   152  149  150 1   
   153  149  152 1   
   154  149  158 1   
   155  150  151 2   
   156  150  163 1   
   157  152  153 1   
   158  152  159 1   
   159  152  160 1   
   160  153  154 1   
   161  153  161 1   
   162  153  162 1   
   163  154  155 1   
   164  154  156 1   
   165  163  164 1   
   166  163  168 1   
   167  164  165 1   
   168  164  166 1   
   169  164  167 1   
   170  170  171 1   
   171  170  172 1   
   172  173  174 1   
   173  173  175 1   
   174  176  177 1   
   175  176  178 1   
   176  179  180 1   
   177  179  181 1   
@<TRIPOS>SUBSTRUCTURE
     1 MOL         1 TEMP              0 ****  ****    0 ROOT
