@<TRIPOS>MOLECULE
MOL
  181   177     1     0     0
SMALL
resp


@<TRIPOS>ATOM
      1 C1          5.0930   -1.3980    2.6670 c3        1 MOL     -0.479241
      2 C2          6.4660   -0.8150    2.4280 c         1 MOL      0.668658
      3 O1          6.7180    0.3810    2.2750 o         1 MOL     -0.632345
      4 H1          4.6830   -1.7610    1.7250 hc        1 MOL      0.134304
      5 H2          5.1670   -2.2250    3.3730 hc        1 MOL      0.134304
      6 H3          4.4370   -0.6290    3.0760 hc        1 MOL      0.134304
      7 N1          7.5180   -1.5750    2.5000 n         1 MOL     -0.466180
      8 C3          8.8810   -1.1050    2.6370 c3        1 MOL      0.279342
      9 C4          9.4920   -0.8370    1.2870 c         1 MOL      0.479353
     10 O2          9.8940   -1.7470    0.5260 o         1 MOL     -0.532343
     11 C5          9.6970   -2.0130    3.4580 c3        1 MOL     -0.477712
     12 C6         11.1880   -1.5060    3.7100 c         1 MOL      0.806257
     13 O3         11.5550   -0.3380    3.4420 o         1 MOL     -0.744623
     14 O4         12.0060   -2.3450    4.2310 o         1 MOL     -0.744623
     15 H4          7.4920   -2.5810    2.6120 hn        1 MOL      0.277487
     16 H5          8.8720   -0.0810    3.0250 h1        1 MOL      0.018534
     17 H6          9.7950   -3.0110    3.0230 hc        1 MOL      0.084398
     18 H7          9.2860   -2.0120    4.4670 hc        1 MOL      0.084398
     19 N2          9.5720    0.4430    0.8820 n         1 MOL     -0.406766
     20 C7          9.6410    0.7930   -0.5590 c3        1 MOL      0.239142
     21 C8          8.3370    0.4030   -1.3050 c         1 MOL      0.211408
     22 O5          8.4060    0.0980   -2.5170 o         1 MOL     -0.490329
     23 C9         10.0400    2.2420   -0.6830 c3        1 MOL     -0.329613
     24 H8          9.4280    1.1920    1.5490 hn        1 MOL      0.265785
     25 H9         10.4000    0.1630   -1.0290 h1        1 MOL      0.079210
     26 H10        11.0500    2.3510   -0.2780 hc        1 MOL      0.082252
     27 H11        10.0260    2.6050   -1.7080 hc        1 MOL      0.082252
     28 H12         9.3780    2.8770   -0.1070 hc        1 MOL      0.082252
     29 N3          7.1280    0.3040   -0.6920 n         1 MOL     -0.121220
     30 C10         5.9210   -0.2550   -1.1750 c3        1 MOL     -0.067095
     31 C11         5.4220    0.4350   -2.4650 c         1 MOL      0.333703
     32 O6          4.8810   -0.1950   -3.3750 o         1 MOL     -0.464511
     33 C12         5.9340   -1.8140   -1.2390 c3        1 MOL      0.471667
     34 C13         4.5730   -2.4140   -1.1820 c         1 MOL      0.424128
     35 O7          4.2380   -3.4240   -1.8540 o         1 MOL     -0.700273
     36 O8          3.7570   -1.8730   -0.4440 o         1 MOL     -0.700273
     37 H13         6.9970    0.6790    0.2390 hn        1 MOL      0.156694
     38 H14         5.2670   -0.0000   -0.3410 h1        1 MOL      0.027607
     39 H15         6.5650   -2.2240   -0.4520 hc        1 MOL     -0.085000
     40 H16         6.4190   -2.1910   -2.1400 hc        1 MOL     -0.085000
     41 N4          5.7080    1.7150   -2.6890 n         1 MOL     -0.061971
     42 C14         5.3320    2.4240   -3.8430 c3        1 MOL     -0.382335
     43 C15         3.8340    2.7080   -3.9720 c         1 MOL      0.597363
     44 O9          3.2550    2.4870   -5.0650 o         1 MOL     -0.541126
     45 H17         6.0490    2.3070   -1.9440 hn        1 MOL      0.195058
     46 H18         5.6670    1.8030   -4.6700 h1        1 MOL      0.150557
     47 H19         5.9410    3.3200   -3.7630 h1        1 MOL      0.150557
     48 N5          3.1820    3.1860   -2.8700 n         1 MOL     -0.544615
     49 C16         1.7500    3.4720   -2.9120 c3        1 MOL      0.279053
     50 C17         1.3950    4.7750   -2.1830 c         1 MOL      0.459774
     51 O10         2.3610    5.5400   -1.8480 o         1 MOL     -0.560349
     52 C18         0.9470    2.1750   -2.3630 c3        1 MOL     -0.201738
     53 C19        -0.3340    1.9380   -3.1240 c         1 MOL      0.623738
     54 N6         -0.8400    0.7580   -2.9060 n         1 MOL     -0.706093
     55 O11        -0.8880    2.8000   -3.7700 o         1 MOL     -0.584690
     56 H20         3.6450    3.4030   -1.9940 hn        1 MOL      0.290016
     57 H21         1.4150    3.6560   -3.9240 h1        1 MOL      0.023840
     58 H22         0.7030    2.3780   -1.3260 hc        1 MOL      0.070062
     59 H23         1.5200    1.2650   -2.4770 hc        1 MOL      0.070062
     60 H24        -0.3550    0.0990   -2.3250 hn        1 MOL      0.325414
     61 H25        -1.7580    0.5220   -3.2700 hn        1 MOL      0.325414
     62 N7          0.1180    5.0900   -2.1570 n         1 MOL     -0.324236
     63 C20        -0.4060    6.3140   -1.5330 c3        1 MOL     -0.028732
     64 C21        -1.8240    6.1230   -0.9520 c         1 MOL      0.478246
     65 O12        -2.6040    5.3610   -1.4700 o         1 MOL     -0.451474
     66 H26        -0.5340    4.5520   -2.7150 hn        1 MOL      0.242234
     67 H27        -0.4930    7.1860   -2.1720 h1        1 MOL      0.054947
     68 H28         0.1720    6.5410   -0.6350 h1        1 MOL      0.054947
     69 N8         -2.1510    6.9640    0.0470 n         1 MOL     -0.214414
     70 C22        -3.4330    6.9150    0.7210 c3        1 MOL     -0.593064
     71 C23        -3.6690    5.5880    1.4990 c         1 MOL      0.707605
     72 O13        -4.8300    5.1870    1.5910 o         1 MOL     -0.575653
     73 C24        -3.7210    8.1500    1.6780 c3        1 MOL      0.628949
     74 C25        -2.8410    8.2660    2.9360 c3        1 MOL     -0.466941
     75 O14        -3.6320    9.3670    0.9930 oh        1 MOL     -0.663313
     76 H29        -1.4530    7.6560    0.2720 hn        1 MOL      0.202208
     77 H30        -4.1100    6.9230   -0.1370 h1        1 MOL      0.213213
     78 H31        -4.7460    8.0360    2.0450 h1        1 MOL      0.025827
     79 H32        -2.7510    9.5130    0.6510 ho        1 MOL      0.398064
     80 H33        -3.2410    9.1290    3.4860 hc        1 MOL      0.111037
     81 H34        -2.9220    7.3440    3.5050 hc        1 MOL      0.111037
     82 H35        -1.7600    8.3600    2.7770 hc        1 MOL      0.111037
     83 N9         -2.6750    4.8220    1.9680 n         1 MOL     -0.492016
     84 C26        -2.7660    3.4840    2.6060 c3        1 MOL      0.109317
     85 C27        -2.0860    2.4300    1.6090 c         1 MOL      0.607681
     86 O15        -1.0720    2.6900    1.0410 o         1 MOL     -0.542981
     87 C28        -2.0430    3.4940    3.9780 c3        1 MOL      0.158919
     88 C29        -2.4850    4.5870    5.0460 c3        1 MOL     -0.113648
     89 C30        -2.0730    2.0250    4.6060 c3        1 MOL     -0.095586
     90 C31        -3.9870    4.7180    5.2790 c3        1 MOL     -0.121614
     91 H36        -1.7360    5.2030    1.8530 hn        1 MOL      0.256061
     92 H37        -3.7850    3.1020    2.7080 h1        1 MOL      0.027212
     93 H38        -0.9850    3.6440    3.7550 hc        1 MOL     -0.013514
     94 H39        -1.9980    5.5340    4.8500 hc        1 MOL      0.037184
     95 H40        -2.0370    4.1530    5.9410 hc        1 MOL      0.037184
     96 H41        -1.6640    1.2880    3.9190 hc        1 MOL      0.018175
     97 H42        -1.4840    1.9610    5.5240 hc        1 MOL      0.018175
     98 H43        -3.1120    1.7770    4.8070 hc        1 MOL      0.018175
     99 H44        -4.5210    3.7870    5.4840 hc        1 MOL      0.034938
    100 H45        -4.0740    5.3430    6.1690 hc        1 MOL      0.034938
    101 H46        -4.3670    5.3170    4.4480 hc        1 MOL      0.034938
    102 N10        -2.6230    1.2090    1.4330 n         1 MOL     -0.621706
    103 C32        -2.2680    0.1340    0.4510 c3        1 MOL      0.349195
    104 C33        -3.4350   -0.5140   -0.2680 c         1 MOL      0.524263
    105 O16        -3.4160   -1.6950   -0.4260 o         1 MOL     -0.542635
    106 C34        -1.2850   -0.8390    1.1790 c3        1 MOL     -0.042450
    107 C35        -0.3210   -1.5190    0.2580 c         1 MOL      0.742221
    108 O17         0.6320   -2.1890    0.7990 o         1 MOL     -0.786312
    109 O18        -0.2160   -1.3470   -0.9730 o         1 MOL     -0.786312
    110 H47        -3.4510    1.0520    1.9790 hn        1 MOL      0.269336
    111 H48        -1.6260    0.7310   -0.2000 h1        1 MOL      0.022330
    112 H49        -1.9070   -1.4750    1.8020 hc        1 MOL      0.030477
    113 H50        -0.6540   -0.1830    1.7730 hc        1 MOL      0.030477
    114 N11        -4.5440    0.2570   -0.4900 n         1 MOL     -0.708556
    115 C36        -5.8330   -0.2910   -0.8540 c3        1 MOL      0.493045
    116 C37        -6.2980   -1.4820    0.0330 c         1 MOL      0.320686
    117 O19        -6.2900   -1.3110    1.2090 o         1 MOL     -0.537527
    118 C38        -6.9420    0.7550   -1.0110 c3        1 MOL     -0.362356
    119 C39        -8.3730    0.1560   -1.1350 ca        1 MOL      0.105339
    120 C40        -8.9680   -0.0020   -2.4450 ca        1 MOL     -0.185917
    121 C41        -9.1150   -0.2110   -0.0300 ca        1 MOL     -0.185917
    122 C42       -10.1730   -0.6420   -2.6830 ca        1 MOL     -0.076285
    123 C43       -10.3850   -0.8000   -0.2140 ca        1 MOL     -0.076285
    124 C44       -10.8290   -1.1250   -1.5580 ca        1 MOL     -0.170701
    125 H51        -4.4890    1.2730   -0.5100 hn        1 MOL      0.321825
    126 H52        -5.7110   -0.5650   -1.9000 h1        1 MOL     -0.038831
    127 H53        -6.7820    1.4210   -1.8530 hc        1 MOL      0.121486
    128 H54        -7.0410    1.3990   -0.1460 hc        1 MOL      0.121486
    129 H55        -8.3810    0.1690   -3.3420 ha        1 MOL      0.126900
    130 H56        -8.8150    0.0490    0.9710 ha        1 MOL      0.126900
    131 H57       -10.4780   -0.8180   -3.7080 ha        1 MOL      0.109594
    132 H58       -11.0240   -1.2130    0.5670 ha        1 MOL      0.109594
    133 H59       -11.7420   -1.6780   -1.7340 ha        1 MOL      0.109639
    134 N12        -6.7280   -2.5550   -0.6620 n         1 MOL      0.196504
    135 C45        -7.3980   -3.6920   -0.0810 c3        1 MOL     -0.124191
    136 C46        -6.4540   -4.5520    0.8270 c         1 MOL      0.369155
    137 O20        -6.8800   -5.2870    1.6960 o         1 MOL     -0.509592
    138 C47        -8.1890   -4.4540   -1.2210 c3        1 MOL     -0.000742
    139 C48        -7.1040   -4.2850   -2.3320 c3        1 MOL     -0.001437
    140 C49        -6.4000   -2.9350   -2.0460 c3        1 MOL     -0.047248
    141 H60        -8.1520   -3.2720    0.5900 h1        1 MOL      0.060562
    142 H61        -8.3910   -5.5200   -1.0850 hc        1 MOL      0.028577
    143 H62        -9.1110   -3.9010   -1.4150 hc        1 MOL      0.028577
    144 H63        -6.3500   -5.0740   -2.2920 hc        1 MOL      0.010255
    145 H64        -7.6170   -4.3050   -3.2820 hc        1 MOL      0.010255
    146 H65        -5.3220   -2.9540   -2.1790 h1        1 MOL     -0.004254
    147 H66        -6.8900   -2.1450   -2.6310 h1        1 MOL     -0.004254
    148 N13        -5.1430   -4.3450    0.6950 n         1 MOL     -0.215210
    149 C50        -4.1690   -5.1220    1.3790 c3        1 MOL     -0.119381
    150 C51        -3.9390   -4.6160    2.7800 c         1 MOL      0.534563
    151 O21        -3.6300   -5.3630    3.6920 o         1 MOL     -0.530648
    152 C52        -2.9230   -4.9810    0.5730 c3        1 MOL      0.147589
    153 C53        -1.8910   -6.1880    0.6860 c3        1 MOL     -0.157075
    154 C54        -0.5100   -5.7900    0.1200 c         1 MOL      0.722936
    155 O22        -0.3170   -4.8150   -0.5720 o         1 MOL     -0.740501
    156 O23         0.4170   -6.4100    0.6380 o         1 MOL     -0.740501
    157 H67        -4.8120   -3.7410   -0.0560 hn        1 MOL      0.251327
    158 H68        -4.2950   -6.1980    1.4320 h1        1 MOL      0.101085
    159 H69        -2.4760   -4.0250    0.8410 hc        1 MOL     -0.050240
    160 H70        -3.0830   -4.8120   -0.4880 hc        1 MOL     -0.050240
    161 H71        -2.3280   -7.1090    0.3000 hc        1 MOL      0.034951
    162 H72        -1.8300   -6.4100    1.7500 hc        1 MOL      0.034951
    163 N14        -4.1970   -3.3060    3.0950 n         1 MOL     -0.284220
    164 C55        -4.1290   -2.8260    4.5240 c3        1 MOL     -0.315241
    165 H73        -3.1240   -2.9840    4.9130 h1        1 MOL      0.123614
    166 H74        -4.3690   -1.7630    4.5620 h1        1 MOL      0.123614
    167 H75        -4.8450   -3.3820    5.1300 h1        1 MOL      0.123614
    168 H76        -4.3450   -2.6120    2.3820 hn        1 MOL      0.283603
    169 Ca1         1.6620   -3.1880   -1.3330 Ca        1 MOL      1.831773
    170 O24         2.4310   -1.2980   -2.9730 oh        1 MOL     -0.837077
    171 H77         1.9870   -0.9710   -3.7590 ho        1 MOL      0.408679
    172 H78         3.2310   -0.7810   -2.9250 ho        1 MOL      0.408679
    173 O25        -0.0490   -2.6960   -3.6160 oh        1 MOL     -0.837077
    174 H79        -0.2240   -2.0060   -4.2550 ho        1 MOL      0.408679
    175 H80        -0.9150   -2.9160   -3.2670 ho        1 MOL      0.408679
    176 O26         1.7510   -5.4390   -3.0510 oh        1 MOL     -0.837077
    177 H81         0.8720   -5.7680   -3.2370 ho        1 MOL      0.408679
    178 H82         2.3440   -6.0830   -3.4360 ho        1 MOL      0.408679
    179 O27         2.5130   -4.8120    0.6560 oh        1 MOL     -0.837077
    180 H83         1.7170   -5.3480    0.6690 ho        1 MOL      0.408679
    181 H84         2.8300   -4.8460    1.5630 ho        1 MOL      0.408679
@<TRIPOS>BOND
     1    1    2 1   
     2    1    4 1   
     3    1    5 1   
     4    1    6 1   
     5    2    3 2   
     6    2    7 1   
     7    7    8 1   
     8    7   15 1   
     9    8    9 1   
    10    8   11 1   
    11    8   16 1   
    12    9   10 2   
    13    9   19 1   
    14   11   12 1   
    15   11   17 1   
    16   11   18 1   
    17   12   13 1   
    18   12   14 1   
    19   19   20 1   
    20   19   24 1   
    21   20   21 1   
    22   20   23 1   
    23   20   25 1   
    24   21   22 2   
    25   21   29 1   
    26   23   26 1   
    27   23   27 1   
    28   23   28 1   
    29   29   30 1   
    30   29   37 1   
    31   30   31 1   
    32   30   33 1   
    33   30   38 1   
    34   31   32 2   
    35   31   41 1   
    36   33   34 1   
    37   33   39 1   
    38   33   40 1   
    39   34   35 1   
    40   34   36 1   
    41   41   42 1   
    42   41   45 1   
    43   42   43 1   
    44   42   46 1   
    45   42   47 1   
    46   43   44 2   
    47   43   48 1   
    48   48   49 1   
    49   48   56 1   
    50   49   50 1   
    51   49   52 1   
    52   49   57 1   
    53   50   51 2   
    54   50   62 1   
    55   52   53 1   
    56   52   58 1   
    57   52   59 1   
    58   53   54 1   
    59   53   55 2   
    60   54   60 1   
    61   54   61 1   
    62   62   63 1   
    63   62   66 1   
    64   63   64 1   
    65   63   67 1   
    66   63   68 1   
    67   64   65 2   
    68   64   69 1   
    69   69   70 1   
    70   69   76 1   
    71   70   71 1   
    72   70   73 1   
    73   70   77 1   
    74   71   72 2   
    75   71   83 1   
    76   73   74 1   
    77   73   75 1   
    78   73   78 1   
    79   74   80 1   
    80   74   81 1   
    81   74   82 1   
    82   75   79 1   
    83   83   84 1   
    84   83   91 1   
    85   84   85 1   
    86   84   87 1   
    87   84   92 1   
    88   85   86 2   
    89   85  102 1   
    90   87   88 1   
    91   87   89 1   
    92   87   93 1   
    93   88   90 1   
    94   88   94 1   
    95   88   95 1   
    96   89   96 1   
    97   89   97 1   
    98   89   98 1   
    99   90   99 1   
   100   90  100 1   
   101   90  101 1   
   102  102  103 1   
   103  102  110 1   
   104  103  104 1   
   105  103  106 1   
   106  103  111 1   
   107  104  105 2   
   108  104  114 1   
   109  106  107 1   
   110  106  112 1   
   111  106  113 1   
   112  107  108 1   
   113  107  109 1   
   114  114  115 1   
   115  114  125 1   
   116  115  116 1   
   117  115  118 1   
   118  115  126 1   
   119  116  117 2   
   120  116  134 1   
   121  118  119 1   
   122  118  127 1   
   123  118  128 1   
   124  119  120 ar  
   125  119  121 ar  
   126  120  122 ar  
   127  120  129 1   
   128  121  123 ar  
   129  121  130 1   
   130  122  124 ar  
   131  122  131 1   
   132  123  124 ar  
   133  123  132 1   
   134  124  133 1   
   135  134  135 1   
   136  134  140 1   
   137  135  136 1   
   138  135  138 1   
   139  135  141 1   
   140  136  137 2   
   141  136  148 1   
   142  138  139 1   
   143  138  142 1   
   144  138  143 1   
   145  139  140 1   
   146  139  144 1   
   147  139  145 1   
   148  140  146 1   
   149  140  147 1   
   150  148  149 1   
   151  148  157 1   
   152  149  150 1   
   153  149  152 1   
   154  149  158 1   
   155  150  151 2   
   156  150  163 1   
   157  152  153 1   
   158  152  159 1   
   159  152  160 1   
   160  153  154 1   
   161  153  161 1   
   162  153  162 1   
   163  154  155 1   
   164  154  156 1   
   165  163  164 1   
   166  163  168 1   
   167  164  165 1   
   168  164  166 1   
   169  164  167 1   
   170  170  171 1   
   171  170  172 1   
   172  173  174 1   
   173  173  175 1   
   174  176  177 1   
   175  176  178 1   
   176  179  180 1   
   177  179  181 1   
@<TRIPOS>SUBSTRUCTURE
     1 MOL         1 TEMP              0 ****  ****    0 ROOT
