@<TRIPOS>MOLECULE
MOL
  192   187     1     0     0
SMALL
resp


@<TRIPOS>ATOM
      1 C1          4.1530    7.2240   -3.3170 c3        1 MOL     -0.185547
      2 C2          3.6790    5.8000   -2.9230 c         1 MOL      0.622931
      3 O1          2.9300    5.2350   -3.7380 o         1 MOL     -0.590116
      4 H1          3.8320    7.9360   -2.5570 hc        1 MOL      0.039447
      5 H2          5.2400    7.2380   -3.3910 hc        1 MOL      0.039447
      6 H3          3.7180    7.4990   -4.2780 hc        1 MOL      0.039447
      7 N1          4.0010    5.3180   -1.7350 n         1 MOL     -0.372719
      8 C3          3.8340    3.8560   -1.3180 c3        1 MOL     -0.066388
      9 C4          2.4220    3.6740   -0.6800 c         1 MOL      0.474106
     10 O2          1.9260    2.5520   -0.6960 o         1 MOL     -0.477452
     11 C5          4.9220    3.2770   -0.4030 c3        1 MOL     -0.182855
     12 C6          5.4200    4.1050    0.7440 c         1 MOL      0.656634
     13 O3          5.6130    3.5450    1.8010 o         1 MOL     -0.718336
     14 O4          5.6700    5.3120    0.5160 o         1 MOL     -0.718336
     15 H4          4.7340    5.7240   -1.1790 hn        1 MOL      0.228397
     16 H5          3.9480    3.3550   -2.2830 h1        1 MOL      0.124028
     17 H6          5.6710    2.9630   -1.1330 hc        1 MOL      0.085967
     18 H7          4.4850    2.3650    0.0090 hc        1 MOL      0.085967
     19 N2          1.8370    4.6990   -0.0510 n         1 MOL     -0.372213
     20 C7          0.4860    4.7420    0.4510 c3        1 MOL      0.264272
     21 C8         -0.5360    4.8270   -0.7590 c         1 MOL      0.677824
     22 O5         -0.3000    5.5790   -1.6630 o         1 MOL     -0.546604
     23 C9          0.4520    6.0880    1.1180 c3        1 MOL     -0.818062
     24 C10         1.0150    5.8830    2.5300 c3        1 MOL      0.355257
     25 C11         1.2140    7.2370    3.2010 c3        1 MOL      0.013350
     26 C12         1.9550    7.1820    4.5710 c3        1 MOL     -0.099171
     27 N3          3.2830    6.4930    4.5350 n4        1 MOL     -0.316587
     28 H8          2.2570    5.6000   -0.2420 hn        1 MOL      0.196232
     29 H9          0.3780    3.9330    1.1780 h1        1 MOL      0.064216
     30 H10        -0.5470    6.5010    1.2590 hc        1 MOL      0.231273
     31 H11         1.0520    6.8350    0.6100 hc        1 MOL      0.231273
     32 H12         2.0010    5.4210    2.6430 hc        1 MOL     -0.033035
     33 H13         0.4240    5.2150    3.1620 hc        1 MOL     -0.033035
     34 H14         0.2340    7.6820    3.3910 hc        1 MOL      0.030823
     35 H15         1.8050    7.9160    2.5870 hc        1 MOL      0.030823
     36 H16         1.2860    6.7210    5.2910 hx        1 MOL      0.103167
     37 H17         2.0980    8.2440    4.8000 hx        1 MOL      0.103167
     38 H18         3.1550    5.4920    4.4620 hn        1 MOL      0.321911
     39 H19         3.8440    6.8400    3.7670 hn        1 MOL      0.321911
     40 H20         3.8060    6.6200    5.3920 hn        1 MOL      0.321911
     41 N4         -1.5840    3.9740   -0.8740 n         1 MOL     -0.685723
     42 C13        -2.1750    3.2090    0.1800 c3        1 MOL      0.178821
     43 C14        -2.6960    3.8510    1.5190 c         1 MOL      0.547227
     44 O6         -1.9740    4.4380    2.3200 o         1 MOL     -0.579340
     45 C15        -1.4910    1.8360    0.3620 c3        1 MOL     -0.363901
     46 C16        -1.1670    1.0110   -0.8540 c         1 MOL      0.745085
     47 O7         -0.3500    0.0870   -0.8120 o         1 MOL     -0.690619
     48 O8         -1.8840    1.0510   -1.8790 o         1 MOL     -0.690619
     49 H21        -2.1530    4.0250   -1.7090 hn        1 MOL      0.350923
     50 H22        -3.0220    2.9200   -0.4530 h1        1 MOL      0.033094
     51 H23        -2.1170    1.2660    1.0450 hc        1 MOL      0.097847
     52 H24        -0.5100    2.0050    0.8030 hc        1 MOL      0.097847
     53 N5         -3.9990    3.6890    1.7910 n         1 MOL     -0.451064
     54 C17        -5.1190    3.1080    1.0750 c3        1 MOL      0.000996
     55 C18        -6.4180    2.9670    1.8680 c         1 MOL      0.639149
     56 O9         -6.3590    3.4160    3.0200 o         1 MOL     -0.573874
     57 H25        -4.2810    4.0610    2.6860 hn        1 MOL      0.289981
     58 H26        -4.8190    2.1740    0.6010 h1        1 MOL      0.088938
     59 H27        -5.3580    3.8140    0.2740 h1        1 MOL      0.088938
     60 N6         -7.4650    2.3650    1.3590 n         1 MOL     -0.547568
     61 C19        -7.5740    1.8200   -0.0500 c3        1 MOL      0.024530
     62 C20        -8.3790    0.5060   -0.0890 c         1 MOL      0.446400
     63 O10        -9.0670    0.0260    0.8730 o         1 MOL     -0.433445
     64 C21        -8.1890    2.7920   -1.0180 c3        1 MOL     -0.032044
     65 C22        -9.5270    3.3300   -0.6170 c         1 MOL      0.723908
     66 O11        -9.5620    4.4320   -0.1110 o         1 MOL     -0.649218
     67 O12       -10.5840    2.6760   -0.7700 o         1 MOL     -0.649218
     68 H28        -8.2680    2.3110    1.9560 hn        1 MOL      0.361576
     69 H29        -6.5500    1.6320   -0.3900 h1        1 MOL      0.015361
     70 H30        -8.3200    2.4320   -2.0310 hc        1 MOL     -0.026428
     71 H31        -7.4800    3.6220   -1.1130 hc        1 MOL     -0.026428
     72 N7         -8.1910   -0.2860   -1.1960 n         1 MOL     -0.424356
     73 C23        -8.9330   -1.5450   -1.4670 c3        1 MOL     -0.081601
     74 C24        -8.2700   -2.8100   -0.7120 c         1 MOL      0.404012
     75 O13        -8.9280   -3.6420   -0.0700 o         1 MOL     -0.483486
     76 H32        -7.8380    0.1360   -2.0440 hn        1 MOL      0.302900
     77 H33        -8.8540   -1.7380   -2.5320 h1        1 MOL      0.105053
     78 H34        -9.9920   -1.4810   -1.2190 h1        1 MOL      0.105053
     79 N8         -6.8820   -2.8380   -0.7210 n         1 MOL     -0.296664
     80 C25        -6.0330   -3.6730    0.1000 c3        1 MOL     -0.092456
     81 C26        -4.6000   -3.1650    0.1590 c         1 MOL      0.262815
     82 O14        -4.1380   -2.4990   -0.7740 o         1 MOL     -0.436597
     83 C27        -6.0520   -5.1540   -0.4280 c3        1 MOL      0.431606
     84 C28        -5.6700   -6.2110    0.5730 c3        1 MOL     -0.235293
     85 O15        -5.3550   -5.2860   -1.5990 oh        1 MOL     -0.579263
     86 H35        -6.3970   -2.2420   -1.3740 hn        1 MOL      0.217183
     87 H36        -6.4580   -3.5610    1.0990 h1        1 MOL      0.147692
     88 H37        -7.0640   -5.4970   -0.6650 h1        1 MOL     -0.003288
     89 H38        -5.7580   -4.7130   -2.2470 ho        1 MOL      0.334637
     90 H39        -6.1310   -5.8120    1.4740 hc        1 MOL      0.054207
     91 H40        -5.9490   -7.2090    0.2280 hc        1 MOL      0.054207
     92 H41        -4.5850   -6.0820    0.6420 hc        1 MOL      0.054207
     93 N9         -3.9650   -3.4710    1.2820 n         1 MOL     -0.232792
     94 C29        -2.6900   -2.8030    1.6390 c3        1 MOL     -0.075802
     95 C30        -1.7060   -3.9280    2.0300 c         1 MOL      0.473986
     96 O16        -1.6650   -4.4010    3.2200 o         1 MOL     -0.531617
     97 C31        -2.8160   -1.7630    2.7680 c3        1 MOL      0.034530
     98 C32        -4.0670   -0.9700    2.5690 c3        1 MOL      0.001740
     99 C33        -1.4980   -1.0050    2.9190 c3        1 MOL     -0.151207
    100 C34        -4.0580    0.2500    3.4610 c3        1 MOL     -0.032506
    101 H42        -4.3950   -4.0900    1.9610 hn        1 MOL      0.282185
    102 H43        -2.2980   -2.3180    0.7470 h1        1 MOL      0.107819
    103 H44        -2.9100   -2.3990    3.6520 hc        1 MOL      0.026795
    104 H45        -4.8820   -1.6690    2.7680 hc        1 MOL      0.004146
    105 H46        -4.2280   -0.7040    1.5200 hc        1 MOL      0.004146
    106 H47        -0.7200   -1.6900    3.2500 hc        1 MOL      0.033599
    107 H48        -1.2110   -0.4590    2.0260 hc        1 MOL      0.033599
    108 H49        -1.5290   -0.2160    3.6740 hc        1 MOL      0.033599
    109 H50        -5.0490    0.7070    3.5380 hc        1 MOL      0.016834
    110 H51        -3.8640    0.0210    4.5090 hc        1 MOL      0.016834
    111 H52        -3.4220    1.0300    3.0420 hc        1 MOL      0.016834
    112 N10        -0.9100   -4.3330    1.0910 n         1 MOL     -0.433482
    113 C35         0.0670   -5.5060    1.2450 c3        1 MOL      0.005563
    114 C36         1.4800   -4.9620    1.4800 c         1 MOL      0.407045
    115 O17         2.3020   -5.7900    1.8560 o         1 MOL     -0.545094
    116 C37         0.0220   -6.5390    0.1140 c3        1 MOL      0.313112
    117 C38         0.4120   -6.0440   -1.2820 c3        1 MOL     -0.050504
    118 O18        -1.3060   -7.0190   -0.0920 oh        1 MOL     -0.612778
    119 H53        -0.8670   -3.7690    0.2510 hn        1 MOL      0.302466
    120 H54        -0.1330   -6.0800    2.1460 h1        1 MOL      0.145119
    121 H55         0.7990   -7.2800    0.2580 h1        1 MOL      0.036873
    122 H56        -1.6700   -6.5380   -0.8410 ho        1 MOL      0.373917
    123 H57         0.2050   -6.8000   -2.0450 hc        1 MOL      0.007285
    124 H58        -0.1480   -5.1670   -1.6040 hc        1 MOL      0.007285
    125 H59         1.4460   -5.7210   -1.3830 hc        1 MOL      0.007285
    126 N11         1.7430   -3.7020    1.5600 n         1 MOL     -0.259061
    127 C39         3.1200   -3.1920    1.6960 c3        1 MOL      0.053344
    128 C40         4.1370   -3.7000    0.6280 c         1 MOL      0.405381
    129 O19         3.8020   -4.1580   -0.4810 o         1 MOL     -0.440510
    130 C41         3.6790   -3.1920    3.1500 c3        1 MOL      0.290217
    131 C42         2.6760   -2.7680    4.1950 c3        1 MOL     -0.404241
    132 O20         4.8630   -2.3600    3.2960 oh        1 MOL     -0.618744
    133 H60         1.0090   -3.1030    1.2000 hn        1 MOL      0.243662
    134 H61         2.9550   -2.1500    1.4140 h1        1 MOL      0.100613
    135 H62         3.9550   -4.2030    3.4560 h1        1 MOL      0.015899
    136 H63         5.1370   -2.3750    4.2200 ho        1 MOL      0.396531
    137 H64         2.1310   -1.9320    3.7560 hc        1 MOL      0.115386
    138 H65         1.9990   -3.6020    4.3940 hc        1 MOL      0.115386
    139 H66         3.1750   -2.3550    5.0670 hc        1 MOL      0.115386
    140 N12         5.4300   -3.6330    0.9270 n         1 MOL     -0.243953
    141 C43         6.6130   -4.0400    0.2040 c3        1 MOL     -0.177858
    142 C44         6.7960   -3.3940   -1.2080 c         1 MOL      0.646016
    143 O21         7.5280   -4.0100   -1.9620 o         1 MOL     -0.575380
    144 C45         7.8310   -3.6990    1.0580 c3        1 MOL     -0.181150
    145 C46         8.0120   -2.1920    1.4730 c3        1 MOL      0.020359
    146 C47         8.8530   -2.1240    2.7390 c3        1 MOL      0.003257
    147 C48         9.2840   -0.6760    3.1050 c3        1 MOL      0.038401
    148 N13         9.5800   -0.6460    4.6100 n4        1 MOL     -0.208478
    149 H67         5.6440   -3.1530    1.7850 hn        1 MOL      0.190376
    150 H68         6.4870   -5.1220    0.1280 h1        1 MOL      0.154173
    151 H69         8.7150   -4.1080    0.5670 hc        1 MOL      0.090816
    152 H70         7.6650   -4.2240    1.9870 hc        1 MOL      0.090816
    153 H71         7.0840   -1.6870    1.7320 hc        1 MOL      0.026788
    154 H72         8.4640   -1.6900    0.6140 hc        1 MOL      0.026788
    155 H73         9.7710   -2.7160    2.6480 hc        1 MOL      0.003831
    156 H74         8.3540   -2.6030    3.5820 hc        1 MOL      0.003831
    157 H75         8.4370   -0.0290    2.8330 hx        1 MOL      0.090069
    158 H76        10.1960   -0.3640    2.5930 hx        1 MOL      0.090069
    159 H77         8.7760   -0.8220    5.1960 hn        1 MOL      0.234898
    160 H78        10.2010   -1.4210    4.7670 hn        1 MOL      0.234898
    161 H79         9.8750    0.2660    4.9120 hn        1 MOL      0.234898
    162 N14         6.0640   -2.3420   -1.5670 n         1 MOL     -0.395937
    163 C49         5.9800   -1.8170   -2.9250 c3        1 MOL      0.063805
    164 C50         6.3710   -0.4000   -2.8800 c         1 MOL      0.355474
    165 O22         5.8550    0.4090   -2.0880 o         1 MOL     -0.477814
    166 C51         4.5670   -1.9750   -3.5050 c3        1 MOL     -0.147802
    167 C52         3.3260   -1.6180   -2.5900 c3        1 MOL      0.546973
    168 C53         2.0530   -1.4250   -3.3930 c         1 MOL      0.588957
    169 O23         1.9880   -0.4850   -4.2020 o         1 MOL     -0.808521
    170 O24         1.0310   -2.0060   -3.0970 o         1 MOL     -0.808521
    171 H80         5.4450   -1.9530   -0.8660 hn        1 MOL      0.215824
    172 H81         6.6790   -2.3030   -3.6020 h1        1 MOL      0.062102
    173 H82         4.4740   -2.9760   -3.9180 hc        1 MOL      0.032110
    174 H83         4.5330   -1.2720   -4.3420 hc        1 MOL      0.032110
    175 H84         3.4720   -0.6470   -2.1110 hc        1 MOL     -0.141445
    176 H85         3.1690   -2.3780   -1.8210 hc        1 MOL     -0.141445
    177 N15         7.3770   -0.0260   -3.6420 n         1 MOL     -0.228751
    178 C54         8.0570    1.2730   -3.5690 c3        1 MOL     -0.171981
    179 H86         7.3150    2.0660   -3.4790 h1        1 MOL      0.093830
    180 H87         8.7140    1.2910   -2.7000 h1        1 MOL      0.093830
    181 H88         8.6440    1.4270   -4.4740 h1        1 MOL      0.093830
    182 H89         7.8530   -0.6750   -4.2390 hn        1 MOL      0.240338
    183 Ca1        -0.7440   -0.1960   -3.7200 Ca        1 MOL      1.769090
    184 O25        -2.4800   -2.2970   -2.8970 oh        1 MOL     -0.898561
    185 H90        -3.0300   -2.4030   -2.1190 ho        1 MOL      0.429179
    186 H91        -2.6650   -3.0770   -3.4250 ho        1 MOL      0.429179
    187 O26         0.8220    2.0980   -3.3430 oh        1 MOL     -0.898561
    188 H92         0.8950    2.9070   -3.8600 ho        1 MOL      0.429179
    189 H93         1.4360    2.2260   -2.6200 ho        1 MOL      0.429179
    190 O27        -3.4350    0.2300   -4.2520 oh        1 MOL     -0.898561
    191 H94        -3.6670    1.1200   -4.4940 ho        1 MOL      0.429179
    192 H95        -4.1560   -0.3100   -4.5840 ho        1 MOL      0.429179
@<TRIPOS>BOND
     1    1    2 1   
     2    1    4 1   
     3    1    5 1   
     4    1    6 1   
     5    2    3 2   
     6    2    7 1   
     7    7    8 1   
     8    7   15 1   
     9    8    9 1   
    10    8   11 1   
    11    8   16 1   
    12    9   10 2   
    13    9   19 1   
    14   11   12 1   
    15   11   17 1   
    16   11   18 1   
    17   12   13 1   
    18   12   14 1   
    19   19   20 1   
    20   19   28 1   
    21   20   21 1   
    22   20   23 1   
    23   20   29 1   
    24   21   22 2   
    25   21   41 1   
    26   23   24 1   
    27   23   30 1   
    28   23   31 1   
    29   24   25 1   
    30   24   32 1   
    31   24   33 1   
    32   25   26 1   
    33   25   34 1   
    34   25   35 1   
    35   26   27 1   
    36   26   36 1   
    37   26   37 1   
    38   27   38 1   
    39   27   39 1   
    40   27   40 1   
    41   41   42 1   
    42   41   49 1   
    43   42   43 1   
    44   42   45 1   
    45   42   50 1   
    46   43   44 2   
    47   43   53 1   
    48   45   46 1   
    49   45   51 1   
    50   45   52 1   
    51   46   47 1   
    52   46   48 1   
    53   53   54 1   
    54   53   57 1   
    55   54   55 1   
    56   54   58 1   
    57   54   59 1   
    58   55   56 2   
    59   55   60 1   
    60   60   61 1   
    61   60   68 1   
    62   61   62 1   
    63   61   64 1   
    64   61   69 1   
    65   62   63 2   
    66   62   72 1   
    67   64   65 1   
    68   64   70 1   
    69   64   71 1   
    70   65   66 1   
    71   65   67 1   
    72   72   73 1   
    73   72   76 1   
    74   73   74 1   
    75   73   77 1   
    76   73   78 1   
    77   74   75 2   
    78   74   79 1   
    79   79   80 1   
    80   79   86 1   
    81   80   81 1   
    82   80   83 1   
    83   80   87 1   
    84   81   82 2   
    85   81   93 1   
    86   83   84 1   
    87   83   85 1   
    88   83   88 1   
    89   84   90 1   
    90   84   91 1   
    91   84   92 1   
    92   85   89 1   
    93   93   94 1   
    94   93  101 1   
    95   94   95 1   
    96   94   97 1   
    97   94  102 1   
    98   95   96 2   
    99   95  112 1   
   100   97   98 1   
   101   97   99 1   
   102   97  103 1   
   103   98  100 1   
   104   98  104 1   
   105   98  105 1   
   106   99  106 1   
   107   99  107 1   
   108   99  108 1   
   109  100  109 1   
   110  100  110 1   
   111  100  111 1   
   112  112  113 1   
   113  112  119 1   
   114  113  114 1   
   115  113  116 1   
   116  113  120 1   
   117  114  115 2   
   118  114  126 1   
   119  116  117 1   
   120  116  118 1   
   121  116  121 1   
   122  117  123 1   
   123  117  124 1   
   124  117  125 1   
   125  118  122 1   
   126  126  127 1   
   127  126  133 1   
   128  127  128 1   
   129  127  130 1   
   130  127  134 1   
   131  128  129 2   
   132  128  140 1   
   133  130  131 1   
   134  130  132 1   
   135  130  135 1   
   136  131  137 1   
   137  131  138 1   
   138  131  139 1   
   139  132  136 1   
   140  140  141 1   
   141  140  149 1   
   142  141  142 1   
   143  141  144 1   
   144  141  150 1   
   145  142  143 2   
   146  142  162 1   
   147  144  145 1   
   148  144  151 1   
   149  144  152 1   
   150  145  146 1   
   151  145  153 1   
   152  145  154 1   
   153  146  147 1   
   154  146  155 1   
   155  146  156 1   
   156  147  148 1   
   157  147  157 1   
   158  147  158 1   
   159  148  159 1   
   160  148  160 1   
   161  148  161 1   
   162  162  163 1   
   163  162  171 1   
   164  163  164 1   
   165  163  166 1   
   166  163  172 1   
   167  164  165 2   
   168  164  177 1   
   169  166  167 1   
   170  166  173 1   
   171  166  174 1   
   172  167  168 1   
   173  167  175 1   
   174  167  176 1   
   175  168  169 1   
   176  168  170 1   
   177  177  178 1   
   178  177  182 1   
   179  178  179 1   
   180  178  180 1   
   181  178  181 1   
   182  184  185 1   
   183  184  186 1   
   184  187  188 1   
   185  187  189 1   
   186  190  191 1   
   187  190  192 1   
@<TRIPOS>SUBSTRUCTURE
     1 MOL         1 TEMP              0 ****  ****    0 ROOT
