@<TRIPOS>MOLECULE
MOL
  181   177     1     0     0
SMALL
resp


@<TRIPOS>ATOM
      1 C1         -5.0740    6.7660    4.5680 c3        1 MOL     -0.266721
      2 C2         -5.0670    5.2470    4.1810 c         1 MOL      0.643945
      3 O1         -4.3880    4.4790    4.8750 o         1 MOL     -0.568304
      4 H1         -4.1800    7.2460    4.1690 hc        1 MOL      0.066186
      5 H2         -5.9600    7.2440    4.1480 hc        1 MOL      0.066186
      6 H3         -5.0860    6.8660    5.6530 hc        1 MOL      0.066186
      7 N1         -5.6700    4.7170    3.1080 n         1 MOL     -0.617117
      8 C3         -6.5410    5.4050    2.0880 c3        1 MOL      0.431936
      9 C4         -5.9540    5.1300    0.7010 c         1 MOL      0.308749
     10 O2         -4.9300    4.4260    0.5280 o         1 MOL     -0.448796
     11 C5         -8.0070    4.9190    2.0280 c3        1 MOL     -0.221920
     12 C6         -8.1830    3.4190    1.6580 c         1 MOL      0.532359
     13 O3         -8.3400    2.6080    2.5780 o         1 MOL     -0.644047
     14 O4         -8.1980    2.9430    0.5190 o         1 MOL     -0.644047
     15 H4         -5.3820    3.7750    2.9250 hn        1 MOL      0.382262
     16 H5         -6.5710    6.4790    2.2520 h1        1 MOL     -0.043753
     17 H6         -8.5830    5.4980    1.3080 hc        1 MOL      0.029458
     18 H7         -8.3640    4.9790    3.0620 hc        1 MOL      0.029458
     19 N2         -6.5020    5.7410   -0.3250 n         1 MOL     -0.379199
     20 C7         -6.1080    5.8830   -1.7410 c3        1 MOL      0.352794
     21 C8         -5.7510    4.6100   -2.4780 c         1 MOL      0.148963
     22 O5         -4.9900    4.7250   -3.4650 o         1 MOL     -0.520404
     23 C9         -4.9760    6.9350   -1.7210 c3        1 MOL     -0.364687
     24 H8         -7.3230    6.2500   -0.0360 hn        1 MOL      0.212690
     25 H9         -6.9570    6.3230   -2.2640 h1        1 MOL      0.017891
     26 H10        -3.9850    6.6010   -1.4220 hc        1 MOL      0.099749
     27 H11        -4.8980    7.4240   -2.6940 hc        1 MOL      0.099749
     28 H12        -5.1460    7.7300   -0.9900 hc        1 MOL      0.099749
     29 N3         -6.0120    3.3870   -2.0140 n         1 MOL      0.219133
     30 C10        -5.5730    2.1370   -2.6170 c3        1 MOL      0.088874
     31 C11        -6.7540    1.1410   -2.8240 c         1 MOL      0.308272
     32 O6         -7.8240    1.3340   -2.2120 o         1 MOL     -0.564963
     33 C12        -4.4920    1.4460   -1.8200 c3        1 MOL     -0.272859
     34 C13        -4.7690    1.2980   -0.2970 c         1 MOL      0.727363
     35 O7         -5.9740    1.2830    0.0160 o         1 MOL     -0.661835
     36 O8         -3.8230    1.1050    0.4840 o         1 MOL     -0.661835
     37 H13        -6.7070    3.3870   -1.2750 hn        1 MOL     -0.060923
     38 H14        -5.1940    2.3290   -3.6120 h1        1 MOL      0.011616
     39 H15        -3.6290    2.1050   -1.8160 hc        1 MOL      0.075276
     40 H16        -4.3810    0.4280   -2.1910 hc        1 MOL      0.075276
     41 N4         -6.5910    0.0660   -3.5530 n         1 MOL     -0.205400
     42 C14        -7.4250   -1.1430   -3.5460 c3        1 MOL     -0.266386
     43 C15        -7.1140   -1.9620   -2.3260 c         1 MOL      0.708126
     44 O9         -7.3190   -1.4590   -1.1880 o         1 MOL     -0.569412
     45 H17        -5.6610   -0.0240   -3.9330 hn        1 MOL      0.251898
     46 H18        -7.2610   -1.6920   -4.4710 h1        1 MOL      0.114223
     47 H19        -8.4680   -0.8340   -3.5830 h1        1 MOL      0.114223
     48 N5         -6.8030   -3.2420   -2.4480 n         1 MOL     -0.595462
     49 C16        -6.6580   -4.2780   -1.4090 c3        1 MOL     -0.117280
     50 C17        -5.2450   -4.3530   -0.9130 c         1 MOL      0.840130
     51 O10        -4.3230   -3.9090   -1.5920 o         1 MOL     -0.544486
     52 C18        -7.0900   -5.6360   -1.9960 c3        1 MOL     -0.439730
     53 C19        -8.5230   -5.6580   -2.3460 c         1 MOL      0.815669
     54 N6         -8.8820   -5.6700   -3.5930 n         1 MOL     -0.770448
     55 O11        -9.3680   -5.5670   -1.5210 o         1 MOL     -0.604370
     56 H20        -6.5060   -3.5600   -3.3610 hn        1 MOL      0.341052
     57 H21        -7.2990   -3.9950   -0.5840 h1        1 MOL      0.143575
     58 H22        -6.9940   -6.4080   -1.2260 hc        1 MOL      0.142953
     59 H23        -6.5330   -6.0590   -2.8240 hc        1 MOL      0.142953
     60 H24        -8.1360   -5.6080   -4.2780 hn        1 MOL      0.344046
     61 H25        -9.7720   -5.2210   -3.7070 hn        1 MOL      0.344046
     62 N7         -5.0570   -4.6830    0.3400 n         1 MOL     -0.693161
     63 C20        -3.7740   -4.4640    1.0360 c3        1 MOL      0.158003
     64 C21        -2.7070   -5.5460    0.9330 c         1 MOL      0.446486
     65 O12        -3.0220   -6.6410    0.4380 o         1 MOL     -0.586793
     66 H26        -5.8620   -5.0090    0.8500 hn        1 MOL      0.350494
     67 H27        -3.8770   -4.1620    2.0810 h1        1 MOL      0.061921
     68 H28        -3.4180   -3.5090    0.6420 h1        1 MOL      0.061921
     69 N8         -1.5170   -5.3660    1.3020 n         1 MOL     -0.315411
     70 C22        -0.8280   -4.2060    1.8880 c3        1 MOL     -0.049953
     71 C23         0.4650   -3.8420    1.0710 c         1 MOL      0.458440
     72 O13         0.9570   -4.5660    0.2310 o         1 MOL     -0.486389
     73 C24        -0.4530   -4.6000    3.3150 c3        1 MOL      0.553158
     74 C25        -1.7290   -4.7330    4.1790 c3        1 MOL     -0.481233
     75 O14         0.3980   -5.7000    3.4220 oh        1 MOL     -0.658306
     76 H29        -0.9210   -6.1470    1.0360 hn        1 MOL      0.282287
     77 H30        -1.5830   -3.4230    1.8730 h1        1 MOL      0.042352
     78 H31         0.1090   -3.7460    3.6840 h1        1 MOL     -0.047477
     79 H32         1.2940   -5.3690    3.5130 ho        1 MOL      0.431322
     80 H33        -2.5360   -4.1720    3.7060 hc        1 MOL      0.110899
     81 H34        -2.1160   -5.7490    4.1110 hc        1 MOL      0.110899
     82 H35        -1.4180   -4.4270    5.1800 hc        1 MOL      0.110899
     83 N9          0.9910   -2.6190    1.3840 n         1 MOL     -0.436406
     84 C26         2.2800   -2.0460    0.9570 c3        1 MOL      0.067815
     85 C27         3.2750   -1.7410    2.0700 c         1 MOL      0.515969
     86 O15         2.8220   -1.5600    3.1890 o         1 MOL     -0.577014
     87 C28         2.1160   -0.7980    0.0480 c3        1 MOL      0.174406
     88 C29         1.1870    0.2200    0.7740 c3        1 MOL      0.067471
     89 C30         1.5810   -1.1060   -1.4050 c3        1 MOL     -0.254281
     90 C31         1.1250    1.6450    0.1170 c3        1 MOL     -0.209812
     91 H36         0.5010   -2.0090    2.0300 hn        1 MOL      0.232765
     92 H37         2.8620   -2.7440    0.3540 h1        1 MOL      0.111153
     93 H38         3.1070   -0.3690   -0.0280 hc        1 MOL     -0.061410
     94 H39         1.4870    0.3160    1.8070 hc        1 MOL     -0.015518
     95 H40         0.1640   -0.1610    0.7480 hc        1 MOL     -0.015518
     96 H41         0.6080   -1.5860   -1.4400 hc        1 MOL      0.057394
     97 H42         1.3070   -0.2320   -2.0050 hc        1 MOL      0.057394
     98 H43         2.3410   -1.7100   -1.8960 hc        1 MOL      0.057394
     99 H44         2.1140    2.0190   -0.1460 hc        1 MOL      0.060753
    100 H45         0.5430    1.5280   -0.8020 hc        1 MOL      0.060753
    101 H46         0.6570    2.4630    0.6580 hc        1 MOL      0.060753
    102 N10         4.6030   -1.7810    1.9010 n         1 MOL     -0.467157
    103 C32         5.4370   -2.1090    0.7690 c3        1 MOL      0.309393
    104 C33         6.8700   -1.5070    0.6800 c         1 MOL      0.502937
    105 O16         7.3980   -1.1370    1.7560 o         1 MOL     -0.534671
    106 C34         5.6090   -3.6020    0.5770 c3        1 MOL     -0.016608
    107 C35         6.0390   -4.4090    1.8500 c         1 MOL      0.654817
    108 O17         5.1390   -4.7900    2.6470 o         1 MOL     -0.674187
    109 O18         7.2760   -4.6450    1.9630 o         1 MOL     -0.674187
    110 H47         5.0040   -1.5570    2.8020 hn        1 MOL      0.286306
    111 H48         5.0340   -1.6940   -0.1550 h1        1 MOL     -0.036095
    112 H49         6.2180   -3.9450   -0.2500 hc        1 MOL     -0.033855
    113 H50         4.6500   -3.9990    0.2400 hc        1 MOL     -0.033855
    114 N11         7.5520   -1.5170   -0.4930 n         1 MOL     -0.889764
    115 C36         8.8730   -0.8970   -0.6770 c3        1 MOL      0.885750
    116 C37         9.0150   -0.3590   -2.1370 c         1 MOL      0.056698
    117 O19         8.5460   -1.0440   -3.0380 o         1 MOL     -0.431058
    118 C38         9.9720   -1.9410   -0.4150 c3        1 MOL     -0.313669
    119 C39        11.3740   -1.3400   -0.1220 ca        1 MOL     -0.017384
    120 C40        12.4890   -1.6560   -0.8540 ca        1 MOL     -0.056370
    121 C41        11.5040   -0.5230    1.0400 ca        1 MOL     -0.056370
    122 C42        13.7520   -1.3040   -0.4330 ca        1 MOL     -0.196141
    123 C43        12.7900   -0.0010    1.4240 ca        1 MOL     -0.196141
    124 C44        13.9230   -0.4370    0.6810 ca        1 MOL     -0.065004
    125 H51         6.9780   -1.5910   -1.3100 hn        1 MOL      0.381280
    126 H52         8.9030   -0.0610    0.0230 h1        1 MOL     -0.041902
    127 H53        10.0460   -2.6000   -1.2800 hc        1 MOL      0.110777
    128 H54         9.6270   -2.4850    0.4710 hc        1 MOL      0.110777
    129 H55        12.3900   -2.2080   -1.7770 ha        1 MOL      0.088671
    130 H56        10.6160   -0.3280    1.6130 ha        1 MOL      0.088671
    131 H57        14.6390   -1.6770   -0.9260 ha        1 MOL      0.112887
    132 H58        12.9250    0.6590    2.2630 ha        1 MOL      0.112887
    133 H59        14.9410   -0.2400    0.9940 ha        1 MOL      0.073127
    134 N12         9.5390    0.9130   -2.3080 n         1 MOL     -0.039261
    135 C45        10.2230    1.7210   -1.3550 c3        1 MOL      0.163033
    136 C46         9.3020    2.4160   -0.2910 c         1 MOL      0.171611
    137 O20         9.6960    2.5970    0.8710 o         1 MOL     -0.502620
    138 C47        10.8750    2.8680   -2.2450 c3        1 MOL     -0.098535
    139 C48        10.8620    2.3150   -3.7000 c3        1 MOL     -0.073718
    140 C49         9.6940    1.3030   -3.6930 c3        1 MOL     -0.034211
    141 H60        11.0130    1.1500   -0.8680 h1        1 MOL      0.038280
    142 H61        10.3240    3.8050   -2.1600 hc        1 MOL      0.043765
    143 H62        11.8930    2.9370   -1.8530 hc        1 MOL      0.043765
    144 H63        10.6330    3.0760   -4.4430 hc        1 MOL      0.013930
    145 H64        11.7690    1.7400   -3.8620 hc        1 MOL      0.013930
    146 H65         8.7820    1.7140   -4.1220 h1        1 MOL      0.066512
    147 H66         9.9320    0.4310   -4.3050 h1        1 MOL      0.066512
    148 N13         8.0680    2.7270   -0.6340 n         1 MOL      0.023156
    149 C50         7.0880    3.3860    0.1740 c3        1 MOL      0.012247
    150 C51         7.4760    4.9320    0.2660 c         1 MOL      0.405799
    151 O21         7.3180    5.6180   -0.7290 o         1 MOL     -0.559400
    152 C52         5.6710    3.1090   -0.3950 c3        1 MOL      0.083881
    153 C53         5.2700    1.6510   -0.5600 c3        1 MOL      0.064181
    154 C54         5.6280    1.0230   -1.9120 c         1 MOL      0.615528
    155 O22         6.4280    1.5730   -2.7130 o         1 MOL     -0.645651
    156 O23         5.1290   -0.0810   -2.3140 o         1 MOL     -0.645651
    157 H67         7.8060    2.6020   -1.6060 hn        1 MOL      0.109761
    158 H68         7.1540    2.9280    1.1660 h1        1 MOL      0.069638
    159 H69         5.4610    3.7470   -1.2470 hc        1 MOL     -0.017495
    160 H70         4.9930    3.5790    0.3340 hc        1 MOL     -0.017495
    161 H71         4.1800    1.5910   -0.5010 hc        1 MOL     -0.081250
    162 H72         5.6960    1.0220    0.2260 hc        1 MOL     -0.081250
    163 N14         7.9410    5.5020    1.3750 n         1 MOL     -0.307705
    164 C55         8.3140    4.8330    2.5980 c3        1 MOL     -0.067827
    165 H73         9.1500    5.3590    3.0590 h1        1 MOL      0.049425
    166 H74         7.4660    4.8280    3.2840 h1        1 MOL      0.049425
    167 H75         8.6080    3.8070    2.3770 h1        1 MOL      0.049425
    168 H76         7.9830    6.5110    1.3100 hn        1 MOL      0.249239
    169 Ca1        -8.5580    0.4350    0.3470 Ca        1 MOL      1.739095
    170 O24       -10.7140    0.2410    2.0000 oh        1 MOL     -0.817250
    171 H77       -11.5690   -0.1800    1.9190 ho        1 MOL      0.387665
    172 H78       -10.9100    1.1070    2.3460 ho        1 MOL      0.387665
    173 O25        -7.6000   -0.6690    2.4560 oh        1 MOL     -0.817250
    174 H79        -8.2230   -0.8090    3.1650 ho        1 MOL      0.387665
    175 H80        -6.7780   -0.4610    2.8880 ho        1 MOL      0.387665
    176 O26       -10.5550    0.7690   -1.2500 oh        1 MOL     -0.817250
    177 H81       -11.5020    0.9310   -1.1760 ho        1 MOL      0.387665
    178 H82       -10.4200    0.5790   -2.1740 ho        1 MOL      0.387665
    179 O27        -9.7070   -2.1220   -0.3000 oh        1 MOL     -0.817250
    180 H83       -10.6380   -2.1260   -0.0610 ho        1 MOL      0.387665
    181 H84        -9.5640   -2.9800   -0.7020 ho        1 MOL      0.387665
@<TRIPOS>BOND
     1    1    2 1   
     2    1    4 1   
     3    1    5 1   
     4    1    6 1   
     5    2    3 2   
     6    2    7 1   
     7    7    8 1   
     8    7   15 1   
     9    8    9 1   
    10    8   11 1   
    11    8   16 1   
    12    9   10 2   
    13    9   19 1   
    14   11   12 1   
    15   11   17 1   
    16   11   18 1   
    17   12   13 1   
    18   12   14 1   
    19   19   20 1   
    20   19   24 1   
    21   20   21 1   
    22   20   23 1   
    23   20   25 1   
    24   21   22 2   
    25   21   29 1   
    26   23   26 1   
    27   23   27 1   
    28   23   28 1   
    29   29   30 1   
    30   29   37 1   
    31   30   31 1   
    32   30   33 1   
    33   30   38 1   
    34   31   32 2   
    35   31   41 1   
    36   33   34 1   
    37   33   39 1   
    38   33   40 1   
    39   34   35 1   
    40   34   36 1   
    41   41   42 1   
    42   41   45 1   
    43   42   43 1   
    44   42   46 1   
    45   42   47 1   
    46   43   44 2   
    47   43   48 1   
    48   48   49 1   
    49   48   56 1   
    50   49   50 1   
    51   49   52 1   
    52   49   57 1   
    53   50   51 2   
    54   50   62 1   
    55   52   53 1   
    56   52   58 1   
    57   52   59 1   
    58   53   54 1   
    59   53   55 2   
    60   54   60 1   
    61   54   61 1   
    62   62   63 1   
    63   62   66 1   
    64   63   64 1   
    65   63   67 1   
    66   63   68 1   
    67   64   65 2   
    68   64   69 1   
    69   69   70 1   
    70   69   76 1   
    71   70   71 1   
    72   70   73 1   
    73   70   77 1   
    74   71   72 2   
    75   71   83 1   
    76   73   74 1   
    77   73   75 1   
    78   73   78 1   
    79   74   80 1   
    80   74   81 1   
    81   74   82 1   
    82   75   79 1   
    83   83   84 1   
    84   83   91 1   
    85   84   85 1   
    86   84   87 1   
    87   84   92 1   
    88   85   86 2   
    89   85  102 1   
    90   87   88 1   
    91   87   89 1   
    92   87   93 1   
    93   88   90 1   
    94   88   94 1   
    95   88   95 1   
    96   89   96 1   
    97   89   97 1   
    98   89   98 1   
    99   90   99 1   
   100   90  100 1   
   101   90  101 1   
   102  102  103 1   
   103  102  110 1   
   104  103  104 1   
   105  103  106 1   
   106  103  111 1   
   107  104  105 2   
   108  104  114 1   
   109  106  107 1   
   110  106  112 1   
   111  106  113 1   
   112  107  108 1   
   113  107  109 1   
   114  114  115 1   
   115  114  125 1   
   116  115  116 1   
   117  115  118 1   
   118  115  126 1   
   119  116  117 2   
   120  116  134 1   
   121  118  119 1   
   122  118  127 1   
   123  118  128 1   
   124  119  120 ar  
   125  119  121 ar  
   126  120  122 ar  
   127  120  129 1   
   128  121  123 ar  
   129  121  130 1   
   130  122  124 ar  
   131  122  131 1   
   132  123  124 ar  
   133  123  132 1   
   134  124  133 1   
   135  134  135 1   
   136  134  140 1   
   137  135  136 1   
   138  135  138 1   
   139  135  141 1   
   140  136  137 2   
   141  136  148 1   
   142  138  139 1   
   143  138  142 1   
   144  138  143 1   
   145  139  140 1   
   146  139  144 1   
   147  139  145 1   
   148  140  146 1   
   149  140  147 1   
   150  148  149 1   
   151  148  157 1   
   152  149  150 1   
   153  149  152 1   
   154  149  158 1   
   155  150  151 2   
   156  150  163 1   
   157  152  153 1   
   158  152  159 1   
   159  152  160 1   
   160  153  154 1   
   161  153  161 1   
   162  153  162 1   
   163  154  155 1   
   164  154  156 1   
   165  163  164 1   
   166  163  168 1   
   167  164  165 1   
   168  164  166 1   
   169  164  167 1   
   170  170  171 1   
   171  170  172 1   
   172  173  174 1   
   173  173  175 1   
   174  176  177 1   
   175  176  178 1   
   176  179  180 1   
   177  179  181 1   
@<TRIPOS>SUBSTRUCTURE
     1 MOL         1 TEMP              0 ****  ****    0 ROOT
