@<TRIPOS>MOLECULE
MOL
  192   187     1     0     0
SMALL
resp


@<TRIPOS>ATOM
      1 C1          4.9030    4.7770   -2.4440 c3        1 MOL     -0.392697
      2 C2          5.5120    3.5500   -1.6340 c         1 MOL      0.761411
      3 O1          4.9510    2.9170   -0.7710 o         1 MOL     -0.646311
      4 H1          5.0840    4.6350   -3.5090 hc        1 MOL      0.099337
      5 H2          3.8300    4.8360   -2.2630 hc        1 MOL      0.099337
      6 H3          5.3780    5.7020   -2.1150 hc        1 MOL      0.099337
      7 N1          6.7290    3.1840   -2.0440 n         1 MOL     -0.566874
      8 C3          7.3890    1.9320   -1.7170 c3        1 MOL      0.011238
      9 C4          6.3980    0.7610   -1.6720 c         1 MOL      0.659195
     10 O2          5.9750    0.3870   -0.6020 o         1 MOL     -0.689098
     11 C5          8.2460    1.9730   -0.4370 c3        1 MOL      0.038701
     12 C6          7.7300    2.8470    0.6570 c         1 MOL      0.724488
     13 O3          7.0260    2.3070    1.5200 o         1 MOL     -0.746486
     14 O4          8.0960    4.0630    0.7150 o         1 MOL     -0.746486
     15 H4          7.0990    3.7260   -2.8120 hn        1 MOL      0.302789
     16 H5          8.1060    1.5950   -2.4630 h1        1 MOL      0.039588
     17 H6          9.1950    2.4750   -0.6320 hc        1 MOL      0.002317
     18 H7          8.7320    1.0670   -0.0810 hc        1 MOL      0.002317
     19 N2          5.8530    0.3760   -2.8600 n         1 MOL     -0.586683
     20 C7          5.0180   -0.8520   -3.0960 c3        1 MOL      0.050240
     21 C8          5.5850   -2.2560   -2.6360 c         1 MOL      0.379459
     22 O5          5.4070   -3.3070   -3.2610 o         1 MOL     -0.531998
     23 C9          3.5640   -0.5580   -2.7510 c3        1 MOL      0.582157
     24 C10         2.4770   -1.6450   -3.0140 c3        1 MOL     -0.513764
     25 C11         3.0680    0.7520   -3.3170 c3        1 MOL     -0.244521
     26 C12         2.4800   -2.1440   -4.4000 c3        1 MOL     -0.092040
     27 H8          6.1020    0.8550   -3.7180 hn        1 MOL      0.294044
     28 H9          4.9970   -1.0330   -4.1730 h1        1 MOL      0.037034
     29 H10         3.5460   -0.4060   -1.6630 hc        1 MOL     -0.181840
     30 H11         1.4830   -1.3100   -2.7140 hc        1 MOL      0.217995
     31 H12         2.7120   -2.4470   -2.3290 hc        1 MOL      0.217995
     32 H13         2.0530    1.0500   -3.0620 hc        1 MOL      0.032859
     33 H14         3.6530    1.6150   -2.9790 hc        1 MOL      0.032859
     34 H15         3.2120    0.7530   -4.3970 hc        1 MOL      0.032859
     35 H16         3.4910   -2.1070   -4.8290 hc        1 MOL      0.021981
     36 H17         2.1860   -3.1960   -4.4000 hc        1 MOL      0.021981
     37 H18         1.8730   -1.5170   -5.0580 hc        1 MOL      0.021981
     38 N3          6.1470   -2.3770   -1.4070 n         1 MOL     -0.166724
     39 C13         6.7270   -3.6740   -0.9060 c3        1 MOL     -0.033673
     40 C14         5.8630   -4.9550   -0.8360 c         1 MOL      0.700384
     41 O6          6.3830   -6.0080   -1.0790 o         1 MOL     -0.619137
     42 C15         7.3350   -3.4590    0.4880 c3        1 MOL     -0.293225
     43 C16         8.2600   -2.2680    0.5940 c         1 MOL      0.787580
     44 O7          8.0380   -1.4360    1.4880 o         1 MOL     -0.725209
     45 O8          9.2320   -2.1540   -0.2800 o         1 MOL     -0.725209
     46 H19         6.3160   -1.5870   -0.7920 hn        1 MOL      0.193463
     47 H20         7.5460   -3.9410   -1.5850 h1        1 MOL      0.067751
     48 H21         7.8890   -4.3900    0.6690 hc        1 MOL      0.067970
     49 H22         6.5470   -3.4650    1.2400 hc        1 MOL      0.067970
     50 N4          4.5770   -4.9900   -0.5480 n         1 MOL     -0.555293
     51 C17         3.8520   -3.9540    0.2700 c3        1 MOL      0.215623
     52 C18         2.4340   -4.4390    0.7030 c         1 MOL      0.480564
     53 O9          1.8090   -5.2820    0.0620 o         1 MOL     -0.548250
     54 H23         4.1450   -5.9000   -0.6150 hn        1 MOL      0.285115
     55 H24         3.7550   -3.0120   -0.2630 h1        1 MOL     -0.010658
     56 H25         4.4140   -3.7000    1.1660 h1        1 MOL     -0.010658
     57 N5          1.9000   -3.9240    1.8080 n         1 MOL     -0.561336
     58 C19         2.0490   -2.7380    2.6120 c3        1 MOL      0.365062
     59 C20         2.3200   -1.4550    1.7460 c         1 MOL      0.288937
     60 O10         3.4800   -1.0530    1.5980 o         1 MOL     -0.294024
     61 C21         3.1550   -2.9240    3.6760 c3        1 MOL     -0.297714
     62 C22         3.2650   -1.9550    4.7760 c         1 MOL      0.645421
     63 O11         2.5950   -0.8910    4.6750 o         1 MOL     -0.674885
     64 O12         4.1150   -2.1310    5.6740 o         1 MOL     -0.674885
     65 H26         1.0550   -4.4210    2.0850 hn        1 MOL      0.304855
     66 H27         1.1890   -2.6140    3.2720 h1        1 MOL     -0.014257
     67 H28         4.1420   -3.0550    3.2210 hc        1 MOL      0.053045
     68 H29         3.0380   -3.9090    4.1400 hc        1 MOL      0.053045
     69 N6          1.3540   -0.8710    1.0770 n         1 MOL     -0.269672
     70 C23        -0.1100   -0.9890    1.4210 c3        1 MOL     -0.136352
     71 C24        -0.7230   -2.2240    0.7600 c         1 MOL      0.234094
     72 O13        -0.2140   -2.8080   -0.2140 o         1 MOL     -0.406834
     73 H30         1.6590   -0.0810    0.5200 hn        1 MOL      0.151523
     74 H31        -0.6290   -0.0630    1.1680 h1        1 MOL      0.128775
     75 H32        -0.2720   -1.0270    2.5020 h1        1 MOL      0.128775
     76 N7         -1.8500   -2.6530    1.2620 n         1 MOL     -0.288411
     77 C25        -2.6630   -3.8320    0.7940 c3        1 MOL     -0.103051
     78 C26        -3.2040   -3.7030   -0.6510 c         1 MOL      0.383617
     79 O14        -3.7530   -4.7370   -1.1160 o         1 MOL     -0.511574
     80 C27        -3.8230   -4.2490    1.7780 c3        1 MOL      0.084825
     81 C28        -4.8710   -3.0820    1.8640 c3        1 MOL     -0.277680
     82 C29        -6.1110   -3.6840    2.4860 c         1 MOL      0.784854
     83 N8         -5.9790   -4.2900    3.7090 n         1 MOL     -0.889762
     84 O15        -7.2110   -3.7990    1.9260 o         1 MOL     -0.569922
     85 H33        -2.2680   -2.1090    2.0020 hn        1 MOL      0.252168
     86 H34        -1.8620   -4.5810    0.7890 h1        1 MOL      0.156791
     87 H35        -3.4370   -4.4370    2.7790 hc        1 MOL      0.016868
     88 H36        -4.2460   -5.2370    1.6210 hc        1 MOL      0.016868
     89 H37        -5.1280   -2.8150    0.8380 hc        1 MOL      0.078039
     90 H38        -4.5000   -2.2580    2.4730 hc        1 MOL      0.078039
     91 H39        -5.1120   -4.2740    4.2280 hn        1 MOL      0.388213
     92 H40        -6.7440   -4.8390    4.0820 hn        1 MOL      0.388213
     93 N9         -3.0100   -2.6080   -1.4300 n         1 MOL     -0.030946
     94 C30        -3.3850   -2.5380   -2.8540 c3        1 MOL     -0.234690
     95 C31        -4.8350   -1.9710   -3.1340 c         1 MOL      0.600801
     96 O16        -5.3430   -2.1510   -4.2310 o         1 MOL     -0.514506
     97 C32        -2.4290   -1.7510   -3.7470 c3        1 MOL      0.062124
     98 C33        -1.1690   -2.6060   -3.7650 c3        1 MOL     -0.099030
     99 C34        -2.1090   -0.3270   -3.2330 c3        1 MOL     -0.099030
    100 H41        -2.7120   -1.7350   -1.0060 hn        1 MOL      0.152831
    101 H42        -3.5060   -3.5320   -3.2700 h1        1 MOL      0.145158
    102 H43        -2.8950   -1.5760   -4.7160 hc        1 MOL      0.027228
    103 H44        -0.7520   -2.8760   -2.7940 hc        1 MOL      0.021996
    104 H45        -1.4990   -3.5280   -4.2520 hc        1 MOL      0.021996
    105 H46        -0.3430   -2.2570   -4.3950 hc        1 MOL      0.021996
    106 H47        -2.9830    0.1430   -2.7650 hc        1 MOL      0.021996
    107 H48        -1.3390   -0.2840   -2.4550 hc        1 MOL      0.021996
    108 H49        -1.6000    0.2640   -3.9920 hc        1 MOL      0.021996
    109 N10        -5.4300   -1.3910   -2.0470 n         1 MOL     -0.432065
    110 C35        -6.8920   -0.9420   -2.0930 c3        1 MOL      0.005025
    111 C36        -6.9780    0.5400   -1.7350 c         1 MOL      0.545163
    112 O17        -8.0160    1.1640   -1.9750 o         1 MOL     -0.562733
    113 C37        -7.6860   -1.8260   -1.1850 c3        1 MOL     -0.179246
    114 C38        -7.6850   -3.2830   -1.7540 c         1 MOL      0.586519
    115 N11        -7.3140   -4.2560   -0.9150 n         1 MOL     -0.788494
    116 O18        -8.0670   -3.5490   -2.8730 o         1 MOL     -0.539063
    117 H50        -4.8570   -1.3450   -1.2110 hn        1 MOL      0.252454
    118 H51        -7.2820   -1.0230   -3.1070 h1        1 MOL      0.096905
    119 H52        -8.7340   -1.5850   -1.0080 hc        1 MOL      0.086137
    120 H53        -7.1990   -1.8530   -0.2110 hc        1 MOL      0.086137
    121 H54        -7.1560   -3.9720    0.0380 hn        1 MOL      0.370488
    122 H55        -7.3650   -5.2070   -1.2400 hn        1 MOL      0.370488
    123 N12        -6.0480    1.1360   -1.0140 n         1 MOL     -0.493992
    124 C39        -6.0490    2.3820   -0.2390 c3        1 MOL      0.420640
    125 C40        -4.6900    2.9890   -0.2020 c         1 MOL      0.342269
    126 O19        -3.7100    2.2950   -0.2880 o         1 MOL     -0.524909
    127 C41        -6.6110    2.2470    1.1900 c3        1 MOL     -0.174932
    128 C42        -7.8500    1.3190    1.2470 ca        1 MOL     -0.028010
    129 C43        -9.0400    1.8680    0.8140 ca        1 MOL     -0.064184
    130 C44        -7.7920    0.0250    1.8790 ca        1 MOL     -0.064184
    131 C45       -10.2340    1.1430    1.0200 ca        1 MOL     -0.364079
    132 C46        -8.9310   -0.7270    2.0500 ca        1 MOL     -0.364079
    133 C47       -10.1680   -0.2150    1.6010 ca        1 MOL      0.438290
    134 O20       -11.3080   -0.7590    1.9690 oh        1 MOL     -0.468308
    135 H56        -5.4250    0.4060   -0.7030 hn        1 MOL      0.233482
    136 H57        -6.6480    3.0780   -0.8300 h1        1 MOL     -0.000817
    137 H58        -6.9170    3.2170    1.5890 hc        1 MOL      0.067500
    138 H59        -5.7860    1.9040    1.8260 hc        1 MOL      0.067500
    139 H60        -8.9980    2.7530    0.1970 ha        1 MOL      0.106067
    140 H61        -6.8830   -0.4160    2.2520 ha        1 MOL      0.106067
    141 H62       -11.1760    1.6050    0.7490 ha        1 MOL      0.165055
    142 H63        -8.8680   -1.5550    2.7400 ha        1 MOL      0.165055
    143 H64       -11.9350   -0.1930    1.5030 ho        1 MOL      0.327565
    144 N13        -4.6100    4.2760    0.0590 n         1 MOL     -0.561902
    145 C48        -3.5100    5.0240    0.7990 c3        1 MOL      0.279307
    146 C49        -2.1340    5.1660    0.0400 c         1 MOL      0.048569
    147 O21        -1.4960    6.2120    0.1380 o         1 MOL     -0.480579
    148 C50        -3.2900    4.2600    2.0810 c3        1 MOL      0.112181
    149 C51        -2.6050    5.0580    3.2220 c3        1 MOL     -0.489508
    150 C52        -2.4410    4.2240    4.4930 c         1 MOL      0.852422
    151 O22        -3.4750    4.0400    5.2650 o         1 MOL     -0.759563
    152 O23        -1.3890    3.7140    4.8680 o         1 MOL     -0.759563
    153 H65        -5.5140    4.7170    0.0460 hn        1 MOL      0.267082
    154 H66        -3.8470    6.0140    1.1100 h1        1 MOL      0.059513
    155 H67        -2.8260    3.2750    2.0150 hc        1 MOL     -0.007008
    156 H68        -4.2840    4.0150    2.4630 hc        1 MOL     -0.007008
    157 H69        -3.3070    5.8810    3.3510 hc        1 MOL      0.087885
    158 H70        -1.6550    5.4620    2.8700 hc        1 MOL      0.087885
    159 N14        -1.7090    4.2260   -0.7560 n         1 MOL      0.164809
    160 C53        -0.5340    4.3370   -1.6750 c3        1 MOL     -0.264118
    161 C54        -0.8390    5.1740   -2.9330 c         1 MOL      0.611638
    162 O24        -0.0560    5.9730   -3.4330 o         1 MOL     -0.544776
    163 C55         0.0090    2.8960   -1.9680 c3        1 MOL      0.019791
    164 C56         0.2590    2.0170   -0.6520 c3        1 MOL      0.300248
    165 C57         1.5360    2.4000    0.0490 c         1 MOL      0.722952
    166 O25         1.5810    3.5030    0.5890 o         1 MOL     -0.647275
    167 O26         2.4640    1.6190    0.0910 o         1 MOL     -0.647275
    168 H71        -2.3300    3.4330   -0.8800 hn        1 MOL      0.234024
    169 H72         0.2490    4.8740   -1.1500 h1        1 MOL      0.150699
    170 H73         0.9540    3.0050   -2.4900 hc        1 MOL     -0.045628
    171 H74        -0.7340    2.4520   -2.6320 hc        1 MOL     -0.045628
    172 H75         0.2980    0.9640   -0.9030 hc        1 MOL     -0.119379
    173 H76        -0.5680    2.1370    0.0470 hc        1 MOL     -0.119379
    174 N15        -2.1280    5.0700   -3.3290 n         1 MOL     -0.285580
    175 C58        -2.8540    5.9000   -4.2920 c3        1 MOL     -0.420222
    176 H77        -2.4430    5.7430   -5.2890 h1        1 MOL      0.149888
    177 H78        -3.9090    5.6250   -4.2870 h1        1 MOL      0.149888
    178 H79        -2.7510    6.9490   -4.0180 h1        1 MOL      0.149888
    179 H80        -2.6810    4.5220   -2.6830 hn        1 MOL      0.196814
    180 Ca1         4.6810    1.3490    1.5140 Ca        1 MOL      1.767342
    181 O27         5.8410    2.2420    3.9970 oh        1 MOL     -0.843338
    182 H81         6.2340    2.0010    4.8290 ho        1 MOL      0.399817
    183 H82         6.5480    2.6560    3.5040 ho        1 MOL      0.399817
    184 O28         5.9320   -0.6770    2.9330 oh        1 MOL     -0.843338
    185 H83         6.5390   -1.0030    2.2800 ho        1 MOL      0.399817
    186 H84         6.3760   -0.8150    3.7790 ho        1 MOL      0.399817
    187 O29         4.0130    3.8830    1.7530 oh        1 MOL     -0.843338
    188 H85         4.6470    4.4430    1.3110 ho        1 MOL      0.399817
    189 H86         3.1740    4.0680    1.3220 ho        1 MOL      0.399817
    190 O30         2.7900    1.2690    3.4090 oh        1 MOL     -0.843338
    191 H87         2.6410    0.5050    3.9680 ho        1 MOL      0.399817
    192 H88         2.1760    1.9260    3.7410 ho        1 MOL      0.399817
@<TRIPOS>BOND
     1    1    2 1   
     2    1    4 1   
     3    1    5 1   
     4    1    6 1   
     5    2    3 2   
     6    2    7 1   
     7    7    8 1   
     8    7   15 1   
     9    8    9 1   
    10    8   11 1   
    11    8   16 1   
    12    9   10 2   
    13    9   19 1   
    14   11   12 1   
    15   11   17 1   
    16   11   18 1   
    17   12   13 1   
    18   12   14 1   
    19   19   20 1   
    20   19   27 1   
    21   20   21 1   
    22   20   23 1   
    23   20   28 1   
    24   21   22 2   
    25   21   38 1   
    26   23   24 1   
    27   23   25 1   
    28   23   29 1   
    29   24   26 1   
    30   24   30 1   
    31   24   31 1   
    32   25   32 1   
    33   25   33 1   
    34   25   34 1   
    35   26   35 1   
    36   26   36 1   
    37   26   37 1   
    38   38   39 1   
    39   38   46 1   
    40   39   40 1   
    41   39   42 1   
    42   39   47 1   
    43   40   41 2   
    44   40   50 1   
    45   42   43 1   
    46   42   48 1   
    47   42   49 1   
    48   43   44 1   
    49   43   45 1   
    50   50   51 1   
    51   50   54 1   
    52   51   52 1   
    53   51   55 1   
    54   51   56 1   
    55   52   53 2   
    56   52   57 1   
    57   57   58 1   
    58   57   65 1   
    59   58   59 1   
    60   58   61 1   
    61   58   66 1   
    62   59   60 2   
    63   59   69 1   
    64   61   62 1   
    65   61   67 1   
    66   61   68 1   
    67   62   63 1   
    68   62   64 1   
    69   69   70 1   
    70   69   73 1   
    71   70   71 1   
    72   70   74 1   
    73   70   75 1   
    74   71   72 2   
    75   71   76 1   
    76   76   77 1   
    77   76   85 1   
    78   77   78 1   
    79   77   80 1   
    80   77   86 1   
    81   78   79 2   
    82   78   93 1   
    83   80   81 1   
    84   80   87 1   
    85   80   88 1   
    86   81   82 1   
    87   81   89 1   
    88   81   90 1   
    89   82   83 1   
    90   82   84 2   
    91   83   91 1   
    92   83   92 1   
    93   93   94 1   
    94   93  100 1   
    95   94   95 1   
    96   94   97 1   
    97   94  101 1   
    98   95   96 2   
    99   95  109 1   
   100   97   98 1   
   101   97   99 1   
   102   97  102 1   
   103   98  103 1   
   104   98  104 1   
   105   98  105 1   
   106   99  106 1   
   107   99  107 1   
   108   99  108 1   
   109  109  110 1   
   110  109  117 1   
   111  110  111 1   
   112  110  113 1   
   113  110  118 1   
   114  111  112 2   
   115  111  123 1   
   116  113  114 1   
   117  113  119 1   
   118  113  120 1   
   119  114  115 1   
   120  114  116 2   
   121  115  121 1   
   122  115  122 1   
   123  123  124 1   
   124  123  135 1   
   125  124  125 1   
   126  124  127 1   
   127  124  136 1   
   128  125  126 2   
   129  125  144 1   
   130  127  128 1   
   131  127  137 1   
   132  127  138 1   
   133  128  129 ar  
   134  128  130 ar  
   135  129  131 ar  
   136  129  139 1   
   137  130  132 ar  
   138  130  140 1   
   139  131  133 ar  
   140  131  141 1   
   141  132  133 ar  
   142  132  142 1   
   143  133  134 1   
   144  134  143 1   
   145  144  145 1   
   146  144  153 1   
   147  145  146 1   
   148  145  148 1   
   149  145  154 1   
   150  146  147 2   
   151  146  159 1   
   152  148  149 1   
   153  148  155 1   
   154  148  156 1   
   155  149  150 1   
   156  149  157 1   
   157  149  158 1   
   158  150  151 1   
   159  150  152 1   
   160  159  160 1   
   161  159  168 1   
   162  160  161 1   
   163  160  163 1   
   164  160  169 1   
   165  161  162 2   
   166  161  174 1   
   167  163  164 1   
   168  163  170 1   
   169  163  171 1   
   170  164  165 1   
   171  164  172 1   
   172  164  173 1   
   173  165  166 1   
   174  165  167 1   
   175  174  175 1   
   176  174  179 1   
   177  175  176 1   
   178  175  177 1   
   179  175  178 1   
   180  181  182 1   
   181  181  183 1   
   182  184  185 1   
   183  184  186 1   
   184  187  188 1   
   185  187  189 1   
   186  190  191 1   
   187  190  192 1   
@<TRIPOS>SUBSTRUCTURE
     1 MOL         1 TEMP              0 ****  ****    0 ROOT
