@<TRIPOS>MOLECULE
MOL
  195   189     1     0     0
SMALL
resp


@<TRIPOS>ATOM
      1 C1         -2.1430    4.0730   -3.0840 c3        1 MOL     -0.437259
      2 C2         -1.3010    4.2810   -1.8480 c         1 MOL      0.779169
      3 O1         -0.5540    3.3310   -1.4820 o         1 MOL     -0.568774
      4 H1         -1.5820    3.4850   -3.8100 hc        1 MOL      0.095214
      5 H2         -3.0570    3.5430   -2.8160 hc        1 MOL      0.095214
      6 H3         -2.3970    5.0400   -3.5190 hc        1 MOL      0.095214
      7 N1         -1.2380    5.4380   -1.1960 n         1 MOL     -0.671835
      8 C3         -0.4210    5.7690    0.0130 c3        1 MOL     -0.026202
      9 C4          1.1060    5.7340   -0.2020 c         1 MOL      0.576013
     10 O2          1.8540    5.4330    0.6790 o         1 MOL     -0.444887
     11 C5         -0.9520    5.0640    1.2660 c3        1 MOL     -0.411910
     12 C6         -2.4750    5.1920    1.3900 c         1 MOL      0.996907
     13 O3         -3.1300    6.1990    0.9600 o         1 MOL     -0.827484
     14 O4         -3.1540    4.2680    1.8740 o         1 MOL     -0.827484
     15 H4         -1.9490    6.0510   -1.5850 hn        1 MOL      0.286068
     16 H5         -0.6840    6.7960    0.2430 h1        1 MOL      0.114772
     17 H6         -0.4790    5.4570    2.1730 hc        1 MOL      0.146175
     18 H7         -0.5670    4.0360    1.2160 hc        1 MOL      0.146175
     19 N2          1.5390    5.7720   -1.4870 n         1 MOL     -0.527934
     20 C7          2.9630    5.6520   -1.8710 c3        1 MOL      0.007123
     21 C8          3.8600    6.7420   -1.1430 c         1 MOL      0.305119
     22 O5          3.3940    7.7460   -0.6090 o         1 MOL     -0.502178
     23 C9          3.2170    5.7120   -3.4270 c3        1 MOL     -0.006349
     24 C10         2.4430    6.8500   -4.1680 c3        1 MOL      0.216092
     25 C11         2.8430    4.3190   -3.9300 c3        1 MOL     -0.274087
     26 C12         3.0880    8.2130   -4.1330 c3        1 MOL     -0.184755
     27 H8          0.8770    5.9200   -2.2290 hn        1 MOL      0.397359
     28 H9          3.2670    4.6670   -1.5100 h1        1 MOL      0.147874
     29 H10         4.2820    5.9150   -3.5750 hc        1 MOL      0.086982
     30 H11         1.4040    6.8740   -3.8340 hc        1 MOL     -0.073316
     31 H12         2.4760    6.4990   -5.1960 hc        1 MOL     -0.073316
     32 H13         3.4300    3.5690   -3.3860 hc        1 MOL      0.067844
     33 H14         1.7550    4.2300   -3.8620 hc        1 MOL      0.067844
     34 H15         3.0720    4.1960   -4.9920 hc        1 MOL      0.067844
     35 H16         4.0900    8.1470   -4.5510 hc        1 MOL      0.035556
     36 H17         2.4610    8.9060   -4.7020 hc        1 MOL      0.035556
     37 H18         2.9240    8.4870   -3.0880 hc        1 MOL      0.035556
     38 N3          5.1360    6.4340   -0.8100 n         1 MOL     -0.297830
     39 C13         5.9000    5.1960   -1.0890 c3        1 MOL     -0.054591
     40 C14         5.5380    3.9030   -0.2400 c         1 MOL      0.666923
     41 O6          5.9770    2.8100   -0.5630 o         1 MOL     -0.590803
     42 C15         7.3880    5.4400   -0.9960 c3        1 MOL     -0.264460
     43 C16         7.9350    6.1730    0.2460 c         1 MOL      0.735088
     44 O7          9.0910    6.6740    0.1000 o         1 MOL     -0.716782
     45 O8          7.3400    6.1240    1.3570 o         1 MOL     -0.716782
     46 H19         5.5790    7.0980   -0.1870 hn        1 MOL      0.266573
     47 H20         5.7360    4.8570   -2.1160 h1        1 MOL      0.047021
     48 H21         7.7950    5.9730   -1.8560 hc        1 MOL      0.059842
     49 H22         7.9260    4.4920   -1.0130 hc        1 MOL      0.059842
     50 N4          4.5670    4.0270    0.6830 n         1 MOL     -0.499642
     51 C17         3.9900    2.8440    1.3470 c3        1 MOL      0.074269
     52 C18         4.9470    2.0910    2.2900 c         1 MOL      0.603338
     53 O9          5.8930    2.5790    2.8420 o         1 MOL     -0.507056
     54 H23         4.1970    4.9560    0.8430 hn        1 MOL      0.340102
     55 H24         3.6490    2.0610    0.6680 h1        1 MOL      0.017232
     56 H25         3.1570    3.1670    1.9700 h1        1 MOL      0.017232
     57 N5          4.6210    0.8100    2.5260 n         1 MOL     -0.629900
     58 C19         5.4280   -0.2340    3.2180 c3        1 MOL      0.319091
     59 C20         6.4680   -1.0090    2.3250 c         1 MOL      0.301149
     60 O10         7.2420   -1.8190    2.8560 o         1 MOL     -0.503856
     61 C21         4.6040   -1.3050    3.8940 c3        1 MOL     -0.486809
     62 C22         3.7350   -2.2560    3.1320 c         1 MOL      0.842716
     63 O11         3.3240   -3.2460    3.7420 o         1 MOL     -0.722368
     64 O12         3.5530   -2.0150    1.9700 o         1 MOL     -0.722368
     65 H26         3.6850    0.5460    2.2430 hn        1 MOL      0.310770
     66 H27         6.0240    0.2750    3.9760 h1        1 MOL      0.039431
     67 H28         3.8590   -0.7850    4.4990 hc        1 MOL      0.093689
     68 H29         5.2850   -1.7930    4.5970 hc        1 MOL      0.093689
     69 N6          6.4230   -0.8380    0.9880 n         1 MOL     -0.191227
     70 C23         7.2080   -1.6160    0.0290 c3        1 MOL     -0.136548
     71 C24         6.7400   -3.0810   -0.0190 c         1 MOL      0.465230
     72 O13         7.5210   -3.7990   -0.6250 o         1 MOL     -0.578783
     73 H30         5.8500   -0.0640    0.7120 hn        1 MOL      0.238839
     74 H31         8.2810   -1.4220    0.0770 h1        1 MOL      0.103043
     75 H32         6.8900   -1.1590   -0.9060 h1        1 MOL      0.103043
     76 N7          5.6710   -3.5520    0.5940 n         1 MOL     -0.042417
     77 C25         5.3160   -5.0300    0.6340 c3        1 MOL     -0.105114
     78 C26         5.0910   -5.5870   -0.7610 c         1 MOL      0.520232
     79 O14         5.3570   -6.7310   -0.9420 o         1 MOL     -0.522985
     80 C27         6.1980   -5.8960    1.5440 c3        1 MOL      0.264961
     81 C28         6.3380   -5.3910    2.9670 c3        1 MOL     -0.068226
     82 C29         7.2520   -6.2930    3.8180 c         1 MOL      0.574607
     83 N8          7.5440   -5.9860    5.0530 n         1 MOL     -0.750842
     84 O15         7.6430   -7.3370    3.2470 o         1 MOL     -0.605210
     85 H33         5.1070   -2.9020    1.1180 hn        1 MOL      0.056348
     86 H34         4.3720   -5.0440    1.1860 h1        1 MOL      0.071563
     87 H35         7.1790   -5.9930    1.0700 hc        1 MOL     -0.027915
     88 H36         5.8130   -6.9080    1.5530 hc        1 MOL     -0.027915
     89 H37         5.3260   -5.4090    3.3940 hc        1 MOL      0.031640
     90 H38         6.9020   -4.4660    2.9850 hc        1 MOL      0.031640
     91 H39         7.1590   -5.1400    5.4630 hn        1 MOL      0.349635
     92 H40         8.1220   -6.6750    5.5010 hn        1 MOL      0.349635
     93 N9          4.5430   -4.7750   -1.6820 n         1 MOL     -0.401652
     94 C30         4.1800   -5.1090   -3.1120 c3        1 MOL     -0.170120
     95 C31         2.7060   -4.6870   -3.3990 c         1 MOL      0.647442
     96 O16         2.1710   -5.0800   -4.4250 o         1 MOL     -0.582359
     97 C32         5.2050   -4.3720   -4.0640 c3        1 MOL      0.387086
     98 C33         5.1940   -2.8180   -3.9000 c3        1 MOL     -0.368224
     99 C34         6.6200   -4.9700   -3.8210 c3        1 MOL     -0.368224
    100 H41         4.4920   -3.8080   -1.3990 hn        1 MOL      0.241941
    101 H42         4.2400   -6.1800   -3.2890 h1        1 MOL      0.117337
    102 H43         4.8610   -4.5940   -5.0720 hc        1 MOL     -0.070002
    103 H44         4.2250   -2.5130   -4.2850 hc        1 MOL      0.083393
    104 H45         5.3190   -2.6080   -2.8360 hc        1 MOL      0.083393
    105 H46         6.0470   -2.4470   -4.4600 hc        1 MOL      0.083393
    106 H47         6.5350   -6.0410   -3.9710 hc        1 MOL      0.083393
    107 H48         7.3410   -4.6090   -4.5540 hc        1 MOL      0.083393
    108 H49         6.9210   -4.7450   -2.8010 hc        1 MOL      0.083393
    109 N10         2.1020   -3.9610   -2.4740 n         1 MOL     -0.498122
    110 C35         0.6430   -3.6950   -2.5060 c3        1 MOL      0.281217
    111 C36         0.0020   -3.8420   -1.1290 c         1 MOL      0.498258
    112 O17         0.7210   -3.8950   -0.0940 o         1 MOL     -0.490365
    113 C37         0.6160   -2.1890   -2.9780 c3        1 MOL     -0.349295
    114 C38        -0.8970   -1.6980   -3.1920 c         1 MOL      0.717425
    115 N11        -1.1650   -0.4230   -2.9000 n         1 MOL     -0.857089
    116 O18        -1.7790   -2.4860   -3.4910 o         1 MOL     -0.543521
    117 H50         2.5170   -3.8010   -1.5670 hn        1 MOL      0.250403
    118 H51         0.0250   -4.2930   -3.1760 h1        1 MOL      0.017167
    119 H52         1.0920   -1.9860   -3.9310 hc        1 MOL      0.110423
    120 H53         1.0000   -1.5840   -2.1550 hc        1 MOL      0.110423
    121 H54        -0.4740    0.2300   -2.5430 hn        1 MOL      0.377643
    122 H55        -2.1100   -0.0720   -2.8550 hn        1 MOL      0.377643
    123 N12        -1.3310   -3.7740   -1.0000 n         1 MOL     -0.540730
    124 C39        -2.1570   -3.8390    0.1860 c3        1 MOL      0.043476
    125 C40        -3.6380   -3.5970   -0.2640 c         1 MOL      0.613049
    126 O19        -3.9420   -2.5170   -0.7510 o         1 MOL     -0.589927
    127 C41        -1.7850   -2.6990    1.1940 c3        1 MOL     -0.141323
    128 C42        -2.8970   -2.3870    2.2450 ca        1 MOL     -0.019830
    129 C43        -3.6030   -1.1570    2.1810 ca        1 MOL     -0.111582
    130 C44        -3.0940   -3.4080    3.2480 ca        1 MOL     -0.111582
    131 C45        -4.4490   -0.8960    3.3240 ca        1 MOL     -0.283434
    132 C46        -3.9630   -3.0540    4.3160 ca        1 MOL     -0.283434
    133 C47        -4.6930   -1.8620    4.3250 ca        1 MOL      0.390112
    134 O20        -5.6730   -1.6700    5.2630 oh        1 MOL     -0.581275
    135 H56        -1.7910   -3.4140   -1.8230 hn        1 MOL      0.297435
    136 H57        -1.9990   -4.7880    0.6940 h1        1 MOL      0.094753
    137 H58        -1.5590   -1.8010    0.6090 hc        1 MOL      0.108908
    138 H59        -0.8390   -2.9250    1.6800 hc        1 MOL      0.108908
    139 H60        -3.4640   -0.4850    1.3490 ha        1 MOL      0.140049
    140 H61        -2.5530   -4.3290    3.3720 ha        1 MOL      0.140049
    141 H62        -5.0910   -0.0230    3.2840 ha        1 MOL      0.149970
    142 H63        -4.0810   -3.7530    5.1320 ha        1 MOL      0.149970
    143 H64        -6.1970   -0.8770    5.1030 ho        1 MOL      0.419584
    144 N13        -4.5370   -4.5040    0.0080 n         1 MOL     -0.585566
    145 C48        -5.8930   -4.4820   -0.4340 c3        1 MOL      0.325674
    146 C49        -6.9150   -4.2360    0.6940 c         1 MOL      0.533788
    147 O21        -7.2750   -5.1590    1.3810 o         1 MOL     -0.535207
    148 C50        -6.1520   -5.8020   -1.1270 c3        1 MOL     -0.078447
    149 C51        -7.4800   -5.8610   -1.8100 c3        1 MOL     -0.200826
    150 C52        -7.5820   -6.9360   -2.8800 c         1 MOL      0.698926
    151 O22        -7.4090   -6.5720   -4.0610 o         1 MOL     -0.695317
    152 O23        -7.9120   -8.1070   -2.5460 o         1 MOL     -0.695317
    153 H65        -4.2170   -5.3470    0.4660 hn        1 MOL      0.264272
    154 H66        -5.9960   -3.6480   -1.1180 h1        1 MOL      0.088200
    155 H67        -6.2440   -6.5950   -0.3760 hc        1 MOL      0.027432
    156 H68        -5.3510   -5.9570   -1.8380 hc        1 MOL      0.027432
    157 H69        -7.6950   -4.8750   -2.2260 hc        1 MOL      0.034972
    158 H70        -8.1390   -6.0470   -0.9570 hc        1 MOL      0.034972
    159 N14        -7.3980   -3.0020    0.9530 n         1 MOL     -0.574391
    160 C53        -6.9740   -1.7160    0.3110 c3        1 MOL      0.036569
    161 C54        -7.3590   -1.5270   -1.1840 c         1 MOL      0.511165
    162 O24        -8.4700   -1.9520   -1.6150 o         1 MOL     -0.539237
    163 C55        -7.4450   -0.5280    1.1970 c3        1 MOL      0.080938
    164 C56        -6.8990    0.8590    0.7390 c3        1 MOL     -0.255653
    165 C57        -7.2210    1.8860    1.8130 c         1 MOL      0.595276
    166 O25        -6.3380    2.8550    1.9250 o         1 MOL     -0.616300
    167 O26        -8.1830    1.8400    2.6000 o         1 MOL     -0.616300
    168 H71        -7.9770   -2.9600    1.7850 hn        1 MOL      0.317287
    169 H72        -5.8890   -1.6780    0.4400 h1        1 MOL      0.094355
    170 H73        -7.0590   -0.5430    2.2190 hc        1 MOL     -0.000609
    171 H74        -8.5320   -0.5510    1.2500 hc        1 MOL     -0.000609
    172 H75        -7.3160    1.0200   -0.2500 hc        1 MOL      0.025581
    173 H76        -5.8090    0.7640    0.6750 hc        1 MOL      0.025581
    174 N15        -6.3670   -1.1830   -2.0290 n         1 MOL     -0.358657
    175 C58        -6.3920   -1.2070   -3.4690 c3        1 MOL     -0.104532
    176 H77        -5.6000   -1.8600   -3.8350 h1        1 MOL      0.071121
    177 H78        -7.3570   -1.5810   -3.8100 h1        1 MOL      0.071121
    178 H79        -6.2360   -0.1980   -3.8520 h1        1 MOL      0.071121
    179 H80        -5.4320   -0.9260   -1.7170 hn        1 MOL      0.274874
    180 Ca1        -5.6280    5.0970    0.9880 Ca        1 MOL      1.725338
    181 O27        -6.7720    7.8860    1.4920 oh        1 MOL     -0.870712
    182 H81        -7.5600    8.0080    0.9620 ho        1 MOL      0.412371
    183 H82        -6.6580    8.7250    1.9440 ho        1 MOL      0.412371
    184 O28        -5.0950    3.2600   -0.8460 oh        1 MOL     -0.870712
    185 H83        -4.5230    2.5290   -0.6390 ho        1 MOL      0.412371
    186 H84        -5.4830    3.0350   -1.6960 ho        1 MOL      0.412371
    187 O29        -8.1680    5.2600    2.0400 oh        1 MOL     -0.870712
    188 H85        -8.8670    5.9130    1.9830 ho        1 MOL      0.412371
    189 H86        -8.5260    4.5770    2.6120 ho        1 MOL      0.412371
    190 O30        -7.6000    4.9860   -0.9430 oh        1 MOL     -0.870712
    191 H87        -7.2930    4.4510   -1.6810 ho        1 MOL      0.412371
    192 H88        -8.3300    5.5010   -1.2980 ho        1 MOL      0.412371
    193 O31        -5.5020    5.6950    3.5510 oh        1 MOL     -0.870712
    194 H89        -5.8180    6.5670    3.7650 ho        1 MOL      0.412371
    195 H90        -4.8760    5.4890    4.2430 ho        1 MOL      0.412371
@<TRIPOS>BOND
     1    1    2 1   
     2    1    4 1   
     3    1    5 1   
     4    1    6 1   
     5    2    3 2   
     6    2    7 1   
     7    7    8 1   
     8    7   15 1   
     9    8    9 1   
    10    8   11 1   
    11    8   16 1   
    12    9   10 2   
    13    9   19 1   
    14   11   12 1   
    15   11   17 1   
    16   11   18 1   
    17   12   13 1   
    18   12   14 1   
    19   19   20 1   
    20   19   27 1   
    21   20   21 1   
    22   20   23 1   
    23   20   28 1   
    24   21   22 2   
    25   21   38 1   
    26   23   24 1   
    27   23   25 1   
    28   23   29 1   
    29   24   26 1   
    30   24   30 1   
    31   24   31 1   
    32   25   32 1   
    33   25   33 1   
    34   25   34 1   
    35   26   35 1   
    36   26   36 1   
    37   26   37 1   
    38   38   39 1   
    39   38   46 1   
    40   39   40 1   
    41   39   42 1   
    42   39   47 1   
    43   40   41 2   
    44   40   50 1   
    45   42   43 1   
    46   42   48 1   
    47   42   49 1   
    48   43   44 1   
    49   43   45 1   
    50   50   51 1   
    51   50   54 1   
    52   51   52 1   
    53   51   55 1   
    54   51   56 1   
    55   52   53 2   
    56   52   57 1   
    57   57   58 1   
    58   57   65 1   
    59   58   59 1   
    60   58   61 1   
    61   58   66 1   
    62   59   60 2   
    63   59   69 1   
    64   61   62 1   
    65   61   67 1   
    66   61   68 1   
    67   62   63 1   
    68   62   64 1   
    69   69   70 1   
    70   69   73 1   
    71   70   71 1   
    72   70   74 1   
    73   70   75 1   
    74   71   72 2   
    75   71   76 1   
    76   76   77 1   
    77   76   85 1   
    78   77   78 1   
    79   77   80 1   
    80   77   86 1   
    81   78   79 2   
    82   78   93 1   
    83   80   81 1   
    84   80   87 1   
    85   80   88 1   
    86   81   82 1   
    87   81   89 1   
    88   81   90 1   
    89   82   83 1   
    90   82   84 2   
    91   83   91 1   
    92   83   92 1   
    93   93   94 1   
    94   93  100 1   
    95   94   95 1   
    96   94   97 1   
    97   94  101 1   
    98   95   96 2   
    99   95  109 1   
   100   97   98 1   
   101   97   99 1   
   102   97  102 1   
   103   98  103 1   
   104   98  104 1   
   105   98  105 1   
   106   99  106 1   
   107   99  107 1   
   108   99  108 1   
   109  109  110 1   
   110  109  117 1   
   111  110  111 1   
   112  110  113 1   
   113  110  118 1   
   114  111  112 2   
   115  111  123 1   
   116  113  114 1   
   117  113  119 1   
   118  113  120 1   
   119  114  115 1   
   120  114  116 2   
   121  115  121 1   
   122  115  122 1   
   123  123  124 1   
   124  123  135 1   
   125  124  125 1   
   126  124  127 1   
   127  124  136 1   
   128  125  126 2   
   129  125  144 1   
   130  127  128 1   
   131  127  137 1   
   132  127  138 1   
   133  128  129 ar  
   134  128  130 ar  
   135  129  131 ar  
   136  129  139 1   
   137  130  132 ar  
   138  130  140 1   
   139  131  133 ar  
   140  131  141 1   
   141  132  133 ar  
   142  132  142 1   
   143  133  134 1   
   144  134  143 1   
   145  144  145 1   
   146  144  153 1   
   147  145  146 1   
   148  145  148 1   
   149  145  154 1   
   150  146  147 2   
   151  146  159 1   
   152  148  149 1   
   153  148  155 1   
   154  148  156 1   
   155  149  150 1   
   156  149  157 1   
   157  149  158 1   
   158  150  151 1   
   159  150  152 1   
   160  159  160 1   
   161  159  168 1   
   162  160  161 1   
   163  160  163 1   
   164  160  169 1   
   165  161  162 2   
   166  161  174 1   
   167  163  164 1   
   168  163  170 1   
   169  163  171 1   
   170  164  165 1   
   171  164  172 1   
   172  164  173 1   
   173  165  166 1   
   174  165  167 1   
   175  174  175 1   
   176  174  179 1   
   177  175  176 1   
   178  175  177 1   
   179  175  178 1   
   180  181  182 1   
   181  181  183 1   
   182  184  185 1   
   183  184  186 1   
   184  187  188 1   
   185  187  189 1   
   186  190  191 1   
   187  190  192 1   
   188  193  194 1   
   189  193  195 1   
@<TRIPOS>SUBSTRUCTURE
     1 MOL         1 TEMP              0 ****  ****    0 ROOT
