@<TRIPOS>MOLECULE
MOL
  186   183     1     0     0
SMALL
resp


@<TRIPOS>ATOM
      1 C1        -12.1170    5.7570    3.3200 c3        1 MOL     -0.494795
      2 C2        -12.1820    4.6470    2.2640 c         1 MOL      0.581406
      3 O1        -12.9480    3.6710    2.2790 o         1 MOL     -0.574188
      4 H1        -11.1510    5.7220    3.8240 hc        1 MOL      0.134147
      5 H2        -12.2400    6.7260    2.8370 hc        1 MOL      0.134147
      6 H3        -12.9120    5.6120    4.0510 hc        1 MOL      0.134147
      7 N1        -11.3430    4.8700    1.2590 n         1 MOL     -0.001792
      8 C3        -11.2870    4.0970   -0.0510 c3        1 MOL     -0.950410
      9 C4        -10.1900    3.0000   -0.0090 c         1 MOL      0.821777
     10 O2         -9.0870    3.1760    0.4900 o         1 MOL     -0.739876
     11 C5        -11.1800    5.0880   -1.1960 c3        1 MOL      0.457485
     12 C6        -10.0290    6.0680   -1.1120 c         1 MOL      0.512095
     13 O3         -9.2310    6.1020   -0.1710 o         1 MOL     -0.662099
     14 O4         -9.9810    6.9790   -1.9530 o         1 MOL     -0.662099
     15 H4        -10.6560    5.5980    1.3880 hn        1 MOL      0.101911
     16 H5        -12.2730    3.6680   -0.2030 h1        1 MOL      0.256714
     17 H6        -12.0940    5.6400   -1.4520 hc        1 MOL     -0.013750
     18 H7        -11.0770    4.5030   -2.1080 hc        1 MOL     -0.013750
     19 N2        -10.4480    1.8060   -0.6040 n         1 MOL     -0.318904
     20 C7         -9.7990    0.4450   -0.4020 c3        1 MOL      0.087840
     21 C8         -8.3560    0.2850   -1.0370 c         1 MOL      0.366825
     22 O5         -8.2550   -0.5730   -1.8990 o         1 MOL     -0.448098
     23 C9        -10.8460   -0.6250   -0.7460 c3        1 MOL     -0.283296
     24 C10       -10.5210   -2.1100   -0.4160 c3        1 MOL      0.063326
     25 C11       -11.7600   -2.9590   -0.2650 c3        1 MOL     -0.058317
     26 C12       -11.5200   -4.3300    0.4120 c3        1 MOL     -0.030026
     27 N3        -12.7760   -4.9830    0.7460 n4        1 MOL     -0.069410
     28 H8        -11.2530    1.7840   -1.2140 hn        1 MOL      0.245702
     29 H9         -9.6520    0.3520    0.6760 h1        1 MOL      0.055666
     30 H10       -10.9960   -0.6590   -1.8220 hc        1 MOL      0.107094
     31 H11       -11.7770   -0.4070   -0.2090 hc        1 MOL      0.107094
     32 H12        -9.9760   -2.1320    0.5220 hc        1 MOL      0.033022
     33 H13        -9.9310   -2.5840   -1.1920 hc        1 MOL      0.033022
     34 H14       -12.1630   -3.1560   -1.2590 hc        1 MOL      0.038416
     35 H15       -12.4380   -2.3640    0.3510 hc        1 MOL      0.038416
     36 H16       -11.0090   -4.2570    1.3700 hx        1 MOL      0.092214
     37 H17       -10.9830   -4.9430   -0.3060 hx        1 MOL      0.092214
     38 H18       -13.1470   -4.6380    1.6150 hn        1 MOL      0.233391
     39 H19       -13.5450   -4.7130    0.1460 hn        1 MOL      0.233391
     40 H20       -12.6370   -5.9810    0.6730 hn        1 MOL      0.233391
     41 N4         -7.4480    1.1770   -0.5680 n         1 MOL     -0.009264
     42 C13        -6.0880    1.1560   -0.9710 c3        1 MOL     -0.200865
     43 C14        -5.1090    1.5290    0.1640 c         1 MOL      0.600993
     44 O6         -5.5050    2.4310    0.8920 o         1 MOL     -0.754469
     45 C15        -5.7210    1.9630   -2.2400 c3        1 MOL     -0.065895
     46 C16        -6.2480    3.4040   -2.4760 c         1 MOL      0.429179
     47 O7         -6.0000    3.9730   -3.5960 o         1 MOL     -0.595963
     48 O8         -7.0600    3.9880   -1.6900 o         1 MOL     -0.595963
     49 H21        -7.8160    1.8960    0.0260 hn        1 MOL      0.100077
     50 H22        -5.9160    0.1150   -1.2700 h1        1 MOL      0.000954
     51 H23        -6.0790    1.4430   -3.1300 hc        1 MOL      0.095528
     52 H24        -4.6690    2.1530   -2.4150 hc        1 MOL      0.095528
     53 N5         -3.9690    0.9460    0.3170 n         1 MOL     -0.256232
     54 C17        -3.4820   -0.2210   -0.3480 c3        1 MOL     -0.251952
     55 C18        -4.0180   -1.6020    0.1230 c         1 MOL      0.585584
     56 O9         -4.5290   -1.7580    1.1960 o         1 MOL     -0.551064
     57 H25        -3.3400    1.3690    0.9870 hn        1 MOL      0.272229
     58 H26        -2.3890   -0.2520   -0.2820 h1        1 MOL      0.114076
     59 H27        -3.6370   -0.0860   -1.4190 h1        1 MOL      0.114076
     60 N6         -4.0820   -2.4800   -0.8750 n         1 MOL     -0.214892
     61 C19        -4.6530   -3.8390   -0.6670 c3        1 MOL      0.002533
     62 C20        -3.5020   -4.8430   -0.9290 c         1 MOL      0.558807
     63 O10        -2.6770   -4.7090   -1.8140 o         1 MOL     -0.490256
     64 C21        -5.9170   -4.0210   -1.5370 c3        1 MOL     -0.146068
     65 C22        -6.3760   -5.4980   -1.7760 c         1 MOL      0.631082
     66 O11        -6.1380   -5.9780   -2.9180 o         1 MOL     -0.682521
     67 O12        -6.8810   -6.1830   -0.8220 o         1 MOL     -0.682521
     68 H28        -3.6600   -2.3740   -1.7900 hn        1 MOL      0.204265
     69 H29        -4.8940   -4.0010    0.3900 h1        1 MOL      0.013408
     70 H30        -5.7170   -3.4890   -2.4760 hc        1 MOL      0.048195
     71 H31        -6.7620   -3.4780   -1.1160 hc        1 MOL      0.048195
     72 N7         -3.4580   -5.9950   -0.1410 n         1 MOL     -0.196713
     73 C23        -2.4240   -7.1170   -0.2110 c3        1 MOL     -0.303209
     74 C24        -0.9550   -6.6220    0.0750 c         1 MOL      0.566568
     75 O13        -0.0450   -7.4360   -0.0510 o         1 MOL     -0.559056
     76 H32        -4.1720   -6.2010    0.5430 hn        1 MOL      0.196391
     77 H33        -2.5240   -7.7270   -1.1080 h1        1 MOL      0.148792
     78 H34        -2.5240   -7.7380    0.6790 h1        1 MOL      0.148792
     79 N8         -0.8580   -5.3450    0.3170 n         1 MOL     -0.149636
     80 C25         0.3200   -4.6410    0.8460 c3        1 MOL     -0.110234
     81 C26         0.5900   -3.2930    0.1410 c         1 MOL      0.573429
     82 O14        -0.2690   -2.7070   -0.5740 o         1 MOL     -0.521618
     83 C27         0.2380   -4.5250    2.4030 c3        1 MOL      0.294373
     84 C28        -1.0970   -3.8970    2.8000 c3        1 MOL     -0.219569
     85 O15         0.4060   -5.7810    2.9810 oh        1 MOL     -0.578330
     86 H35        -1.7130   -4.8270    0.2290 hn        1 MOL      0.054431
     87 H36         1.2420   -5.1750    0.6100 h1        1 MOL      0.084051
     88 H37         1.0630   -3.8400    2.6240 h1        1 MOL     -0.026698
     89 H38         0.4270   -5.6310    3.9270 ho        1 MOL      0.386534
     90 H39        -1.8480   -4.6760    2.6410 hc        1 MOL      0.050483
     91 H40        -1.0830   -3.4070    3.7660 hc        1 MOL      0.050483
     92 H41        -1.3930   -3.1470    2.0570 hc        1 MOL      0.050483
     93 N9          1.8540   -2.8510    0.3380 n         1 MOL     -0.447655
     94 C29         2.3710   -1.5300   -0.0390 c3        1 MOL     -0.117669
     95 C30         3.8290   -1.4480   -0.4800 c         1 MOL      0.557688
     96 O16         4.2130   -0.3690   -1.0430 o         1 MOL     -0.550099
     97 C31         2.1710   -0.4630    1.0620 c3        1 MOL      0.077786
     98 C32         3.0620   -0.7780    2.3440 c3        1 MOL      0.116551
     99 C33         0.6350   -0.3490    1.4580 c3        1 MOL     -0.042733
    100 C34         2.8280    0.1780    3.5110 c3        1 MOL     -0.347307
    101 H42         2.5020   -3.4900    0.8000 hn        1 MOL      0.307009
    102 H43         1.8020   -1.1500   -0.8970 h1        1 MOL      0.142147
    103 H44         2.4300    0.5100    0.6480 hc        1 MOL      0.036847
    104 H45         4.0970   -0.7410    1.9920 hc        1 MOL     -0.000204
    105 H46         2.9410   -1.7740    2.7800 hc        1 MOL     -0.000204
    106 H47         0.3720   -1.2430    2.0130 hc        1 MOL      0.011113
    107 H48         0.5710    0.5260    2.1030 hc        1 MOL      0.011113
    108 H49         0.0300   -0.1360    0.5770 hc        1 MOL      0.011113
    109 H50         3.3500   -0.0880    4.4250 hc        1 MOL      0.087209
    110 H51         3.1010    1.1890    3.1840 hc        1 MOL      0.087209
    111 H52         1.7970    0.0530    3.8540 hc        1 MOL      0.087209
    112 N10         4.6540   -2.4980   -0.3180 n         1 MOL     -0.463974
    113 C35         5.9900   -2.6080   -0.7400 c3        1 MOL      0.170520
    114 C36         6.9370   -2.7510    0.5100 c         1 MOL      0.551867
    115 O17         6.5320   -3.3200    1.5550 o         1 MOL     -0.538642
    116 C37         6.2630   -3.8910   -1.5140 c3        1 MOL      0.280842
    117 C38         5.4980   -4.0420   -2.8120 c3        1 MOL     -0.300259
    118 O18         7.6660   -3.9600   -1.8050 oh        1 MOL     -0.629920
    119 H53         4.3620   -3.1720    0.3760 hn        1 MOL      0.201376
    120 H54         6.3340   -1.7260   -1.2840 h1        1 MOL      0.092539
    121 H55         6.0140   -4.7310   -0.8630 h1        1 MOL      0.001799
    122 H56         7.7460   -4.8070   -2.2650 ho        1 MOL      0.394155
    123 H57         4.4060   -4.0560   -2.7500 hc        1 MOL      0.085867
    124 H58         5.8240   -3.2060   -3.4400 hc        1 MOL      0.085867
    125 H59         5.7550   -4.9550   -3.3470 hc        1 MOL      0.085867
    126 N11         8.1510   -2.1780    0.4960 n         1 MOL     -0.561553
    127 C39         9.1630   -2.2210    1.5350 c3        1 MOL      0.128447
    128 C40         9.8160   -0.8490    1.7420 c         1 MOL      0.554480
    129 O19         9.9330   -0.4370    2.9090 o         1 MOL     -0.547562
    130 C41        10.3010   -3.1480    1.1210 c3        1 MOL      0.271368
    131 C42        11.3610   -3.3210    2.2510 c3        1 MOL     -0.452615
    132 O20        10.9620   -2.6690   -0.0510 oh        1 MOL     -0.626688
    133 H60         8.4000   -1.5870   -0.2880 hn        1 MOL      0.283357
    134 H61         8.6890   -2.5570    2.4580 h1        1 MOL      0.087639
    135 H62         9.8360   -4.1260    0.9850 h1        1 MOL      0.044651
    136 H63        11.7230   -3.2390   -0.1560 ho        1 MOL      0.402939
    137 H64        10.8150   -3.6730    3.1310 hc        1 MOL      0.122218
    138 H65        11.9610   -4.1710    1.9440 hc        1 MOL      0.122218
    139 H66        11.9370   -2.4070    2.3290 hc        1 MOL      0.122218
    140 N12        10.1100   -0.0860    0.6670 n         1 MOL     -0.362496
    141 C43        10.6610    1.2680    0.6670 c3        1 MOL     -0.044641
    142 C44        10.0340    2.1790   -0.3480 c         1 MOL      0.330588
    143 O21         9.8190    1.7960   -1.5000 o         1 MOL     -0.465659
    144 C45        12.2150    1.3340    0.5520 c3        1 MOL     -0.245080
    145 C46        12.7990    0.4640   -0.6270 c3        1 MOL      0.360709
    146 C47        14.3180    0.5070   -0.8450 c3        1 MOL     -0.213287
    147 C48        14.5800    1.2950   -2.1420 c3        1 MOL      0.106301
    148 N13        16.1120    1.2760   -2.3540 n4        1 MOL     -0.293836
    149 H67        10.1070   -0.5490   -0.2430 hn        1 MOL      0.280529
    150 H68        10.3820    1.6970    1.6260 h1        1 MOL      0.088109
    151 H69        12.7000    1.0050    1.4700 hc        1 MOL      0.078600
    152 H70        12.5460    2.3630    0.4060 hc        1 MOL      0.078600
    153 H71        12.2720    0.7960   -1.5280 hc        1 MOL     -0.065165
    154 H72        12.4930   -0.5650   -0.4800 hc        1 MOL     -0.065165
    155 H73        14.7590   -0.4790   -0.9380 hc        1 MOL      0.057132
    156 H74        14.8050    1.1050   -0.0780 hc        1 MOL      0.057132
    157 H75        14.3460    2.3460   -2.0160 hx        1 MOL      0.077902
    158 H76        14.0400    0.7830   -2.9340 hx        1 MOL      0.077902
    159 H77        16.2830    0.3100   -2.6110 hn        1 MOL      0.271168
    160 H78        16.2710    1.8830   -3.1460 hn        1 MOL      0.271168
    161 H79        16.6780    1.5070   -1.5580 hn        1 MOL      0.271168
    162 N14         9.6950    3.3820    0.1050 n         1 MOL     -0.153362
    163 C49         9.1810    4.3830   -0.8420 c3        1 MOL      0.271492
    164 C50         7.6720    4.1820   -1.0860 c         1 MOL      0.327691
    165 O22         7.4070    3.7930   -2.1930 o         1 MOL     -0.518257
    166 C51         9.5510    5.8330   -0.4170 c3        1 MOL      0.053968
    167 C52        11.0760    6.1120   -0.3810 c3        1 MOL     -0.173162
    168 C53        11.4470    7.4960    0.2090 c         1 MOL      0.711767
    169 O23        12.6910    7.6440    0.4430 o         1 MOL     -0.679326
    170 O24        10.5580    8.3740    0.4690 o         1 MOL     -0.679326
    171 H80         9.8170    3.6250    1.0790 hn        1 MOL      0.234187
    172 H81         9.7400    4.1020   -1.7380 h1        1 MOL      0.000106
    173 H82         9.3060    5.7440    0.6400 hc        1 MOL     -0.007598
    174 H83         9.0060    6.5810   -0.9870 hc        1 MOL     -0.007598
    175 H84        11.3790    5.8800   -1.4080 hc        1 MOL     -0.021065
    176 H85        11.4430    5.3280    0.2710 hc        1 MOL     -0.021065
    177 N15         6.7640    4.0830   -0.1500 n         1 MOL     -0.354261
    178 C54         6.9330    4.2650    1.3100 c3        1 MOL     -0.082434
    179 H86         7.6740    5.0420    1.4960 h1        1 MOL      0.053155
    180 H87         5.9820    4.5580    1.7530 h1        1 MOL      0.053155
    181 H88         7.2700    3.3290    1.7570 h1        1 MOL      0.053155
    182 H89         5.8110    3.8960   -0.4250 hn        1 MOL      0.308261
    183 Ca1        -6.9880    4.7490    0.7360 Ca        1 MOL      1.706433
    184 O25        -7.4730    3.3030    2.7950 oh        1 MOL     -0.784741
    185 H90        -7.9320    3.3980    3.6360 ho        1 MOL      0.415216
    186 H91        -7.2700    2.3640    2.7400 ho        1 MOL      0.415216
@<TRIPOS>BOND
     1    1    2 1   
     2    1    4 1   
     3    1    5 1   
     4    1    6 1   
     5    2    3 2   
     6    2    7 1   
     7    7    8 1   
     8    7   15 1   
     9    8    9 1   
    10    8   11 1   
    11    8   16 1   
    12    9   10 2   
    13    9   19 1   
    14   11   12 1   
    15   11   17 1   
    16   11   18 1   
    17   12   13 1   
    18   12   14 1   
    19   19   20 1   
    20   19   28 1   
    21   20   21 1   
    22   20   23 1   
    23   20   29 1   
    24   21   22 2   
    25   21   41 1   
    26   23   24 1   
    27   23   30 1   
    28   23   31 1   
    29   24   25 1   
    30   24   32 1   
    31   24   33 1   
    32   25   26 1   
    33   25   34 1   
    34   25   35 1   
    35   26   27 1   
    36   26   36 1   
    37   26   37 1   
    38   27   38 1   
    39   27   39 1   
    40   27   40 1   
    41   41   42 1   
    42   41   49 1   
    43   42   43 1   
    44   42   45 1   
    45   42   50 1   
    46   43   44 2   
    47   43   53 1   
    48   45   46 1   
    49   45   51 1   
    50   45   52 1   
    51   46   47 1   
    52   46   48 1   
    53   53   54 1   
    54   53   57 1   
    55   54   55 1   
    56   54   58 1   
    57   54   59 1   
    58   55   56 2   
    59   55   60 1   
    60   60   61 1   
    61   60   68 1   
    62   61   62 1   
    63   61   64 1   
    64   61   69 1   
    65   62   63 2   
    66   62   72 1   
    67   64   65 1   
    68   64   70 1   
    69   64   71 1   
    70   65   66 1   
    71   65   67 1   
    72   72   73 1   
    73   72   76 1   
    74   73   74 1   
    75   73   77 1   
    76   73   78 1   
    77   74   75 2   
    78   74   79 1   
    79   79   80 1   
    80   79   86 1   
    81   80   81 1   
    82   80   83 1   
    83   80   87 1   
    84   81   82 2   
    85   81   93 1   
    86   83   84 1   
    87   83   85 1   
    88   83   88 1   
    89   84   90 1   
    90   84   91 1   
    91   84   92 1   
    92   85   89 1   
    93   93   94 1   
    94   93  101 1   
    95   94   95 1   
    96   94   97 1   
    97   94  102 1   
    98   95   96 2   
    99   95  112 1   
   100   97   98 1   
   101   97   99 1   
   102   97  103 1   
   103   98  100 1   
   104   98  104 1   
   105   98  105 1   
   106   99  106 1   
   107   99  107 1   
   108   99  108 1   
   109  100  109 1   
   110  100  110 1   
   111  100  111 1   
   112  112  113 1   
   113  112  119 1   
   114  113  114 1   
   115  113  116 1   
   116  113  120 1   
   117  114  115 2   
   118  114  126 1   
   119  116  117 1   
   120  116  118 1   
   121  116  121 1   
   122  117  123 1   
   123  117  124 1   
   124  117  125 1   
   125  118  122 1   
   126  126  127 1   
   127  126  133 1   
   128  127  128 1   
   129  127  130 1   
   130  127  134 1   
   131  128  129 2   
   132  128  140 1   
   133  130  131 1   
   134  130  132 1   
   135  130  135 1   
   136  131  137 1   
   137  131  138 1   
   138  131  139 1   
   139  132  136 1   
   140  140  141 1   
   141  140  149 1   
   142  141  142 1   
   143  141  144 1   
   144  141  150 1   
   145  142  143 2   
   146  142  162 1   
   147  144  145 1   
   148  144  151 1   
   149  144  152 1   
   150  145  146 1   
   151  145  153 1   
   152  145  154 1   
   153  146  147 1   
   154  146  155 1   
   155  146  156 1   
   156  147  148 1   
   157  147  157 1   
   158  147  158 1   
   159  148  159 1   
   160  148  160 1   
   161  148  161 1   
   162  162  163 1   
   163  162  171 1   
   164  163  164 1   
   165  163  166 1   
   166  163  172 1   
   167  164  165 2   
   168  164  177 1   
   169  166  167 1   
   170  166  173 1   
   171  166  174 1   
   172  167  168 1   
   173  167  175 1   
   174  167  176 1   
   175  168  169 1   
   176  168  170 1   
   177  177  178 1   
   178  177  182 1   
   179  178  179 1   
   180  178  180 1   
   181  178  181 1   
   182  184  185 1   
   183  184  186 1   
@<TRIPOS>SUBSTRUCTURE
     1 MOL         1 TEMP              0 ****  ****    0 ROOT
