@<TRIPOS>MOLECULE
MOL
  195   189     1     0     0
SMALL
resp


@<TRIPOS>ATOM
      1 C1         -2.2310   -6.1020   -2.8150 c3        1 MOL     -0.288925
      2 C2         -2.8680   -5.3470   -1.6860 c         1 MOL      0.751272
      3 O1         -2.1810   -4.5750   -0.9780 o         1 MOL     -0.729374
      4 H1         -1.2840   -5.6300   -3.0780 hc        1 MOL      0.064741
      5 H2         -2.0510   -7.1320   -2.5080 hc        1 MOL      0.064741
      6 H3         -2.8940   -6.0910   -3.6790 hc        1 MOL      0.064741
      7 N1         -4.2370   -5.5510   -1.6320 n         1 MOL     -0.693410
      8 C3         -5.2050   -5.0040   -0.6540 c3        1 MOL      0.290819
      9 C4         -5.3260   -3.4980   -0.7340 c         1 MOL      0.297106
     10 O2         -5.3180   -2.7720    0.2960 o         1 MOL     -0.469803
     11 C5         -5.1140   -5.6510    0.7720 c3        1 MOL     -0.305423
     12 C6         -3.7010   -5.8220    1.4620 c         1 MOL      0.996224
     13 O3         -2.9790   -4.8580    1.7400 o         1 MOL     -0.816427
     14 O4         -3.2900   -6.9360    1.7440 o         1 MOL     -0.816427
     15 H4         -4.7020   -6.0360   -2.3900 hn        1 MOL      0.338613
     16 H5         -6.1410   -5.3400   -1.0980 h1        1 MOL      0.035401
     17 H6         -5.5620   -6.6460    0.7250 hc        1 MOL      0.070991
     18 H7         -5.6930   -5.0800    1.4950 hc        1 MOL      0.070991
     19 N2         -5.4840   -2.9990   -1.9550 n         1 MOL     -0.259691
     20 C7         -5.7770   -1.5850   -2.3200 c3        1 MOL     -0.022920
     21 C8         -7.1160   -1.0720   -1.7080 c         1 MOL      0.348328
     22 O5         -8.1920   -1.1800   -2.3550 o         1 MOL     -0.544295
     23 C9         -4.4860   -0.6700   -2.2170 c3        1 MOL      0.339246
     24 C10        -4.5880    0.5840   -3.0890 c3        1 MOL     -0.308911
     25 C11        -3.3060   -1.4620   -2.6760 c3        1 MOL     -0.148989
     26 C12        -5.6950    1.5580   -2.6100 c3        1 MOL     -0.072541
     27 H8         -5.6520   -3.6420   -2.7090 hn        1 MOL      0.227744
     28 H9         -5.9450   -1.6490   -3.3880 h1        1 MOL      0.037706
     29 H10        -4.4270   -0.4330   -1.1560 hc        1 MOL     -0.066460
     30 H11        -4.8270    0.2880   -4.1090 hc        1 MOL      0.040735
     31 H12        -3.6520    1.1420   -3.0230 hc        1 MOL      0.040735
     32 H13        -3.5770   -1.9160   -3.6380 hc        1 MOL      0.034949
     33 H14        -2.4410   -0.8140   -2.7710 hc        1 MOL      0.034949
     34 H15        -3.0120   -2.2420   -1.9760 hc        1 MOL      0.034949
     35 H16        -5.5640    1.7650   -1.5510 hc        1 MOL      0.036387
     36 H17        -5.5080    2.4520   -3.2130 hc        1 MOL      0.036387
     37 H18        -6.6880    1.2590   -2.9410 hc        1 MOL      0.036387
     38 N3         -7.0520   -0.6500   -0.4410 n         1 MOL     -0.068212
     39 C13        -8.2330   -0.0710    0.1520 c3        1 MOL      0.044251
     40 C14        -8.5530    1.3880   -0.2870 c         1 MOL      0.608841
     41 O6         -9.5940    1.5390   -0.9070 o         1 MOL     -0.560458
     42 C15        -8.0410   -0.2230    1.7370 c3        1 MOL     -0.284708
     43 C16        -8.0540   -1.6290    2.2950 c         1 MOL      0.659329
     44 O7         -8.8570   -2.4910    1.7170 o         1 MOL     -0.710461
     45 O8         -7.4770   -2.0230    3.3870 o         1 MOL     -0.710461
     46 H19        -6.1380   -0.7200   -0.0190 hn        1 MOL      0.237259
     47 H20        -9.0840   -0.7070   -0.0580 h1        1 MOL      0.047829
     48 H21        -8.8560    0.2810    2.2680 hc        1 MOL      0.081650
     49 H22        -7.1190    0.2150    2.1080 hc        1 MOL      0.081650
     50 N4         -7.7030    2.4670   -0.1630 n         1 MOL     -0.667154
     51 C17        -6.5530    2.5670    0.7890 c3        1 MOL      0.377003
     52 C18        -6.9400    2.8390    2.2550 c         1 MOL      0.533269
     53 O9         -8.1080    3.0580    2.5510 o         1 MOL     -0.561089
     54 H23        -7.8850    3.3050   -0.6960 hn        1 MOL      0.322801
     55 H24        -5.9030    3.3550    0.4290 h1        1 MOL     -0.064405
     56 H25        -5.9690    1.6430    0.7970 h1        1 MOL     -0.064405
     57 N5         -6.0130    2.9140    3.2100 n         1 MOL     -0.633796
     58 C19        -4.5280    2.9100    2.9950 c3        1 MOL      0.486275
     59 C20        -3.8930    1.5220    3.2430 c         1 MOL      0.251714
     60 O10        -4.5910    0.6990    3.8220 o         1 MOL     -0.471206
     61 C21        -4.0010    4.0500    3.9240 c3        1 MOL     -0.349049
     62 C22        -4.6010    5.4300    3.5410 c         1 MOL      0.740914
     63 O11        -5.4370    5.5950    2.6010 o         1 MOL     -0.702054
     64 O12        -4.2050    6.3620    4.2380 o         1 MOL     -0.702054
     65 H26        -6.3340    3.1790    4.1250 hn        1 MOL      0.352800
     66 H27        -4.3260    3.2280    1.9760 h1        1 MOL     -0.036385
     67 H28        -2.9160    4.1710    3.8390 hc        1 MOL      0.063540
     68 H29        -4.3440    3.8780    4.9480 hc        1 MOL      0.063540
     69 N6         -2.6920    1.1410    2.7450 n         1 MOL     -0.277591
     70 C23        -1.7960    1.9940    1.9530 c3        1 MOL     -0.210869
     71 C24        -2.1830    2.1880    0.4580 c         1 MOL      0.569304
     72 O13        -3.1690    1.7000   -0.0710 o         1 MOL     -0.492801
     73 H30        -2.2650    0.2730    3.0530 hn        1 MOL      0.269661
     74 H31        -0.7950    1.5940    2.0690 h1        1 MOL      0.090071
     75 H32        -1.7290    2.9530    2.4770 h1        1 MOL      0.090071
     76 N7         -1.4180    3.0670   -0.1900 n         1 MOL     -0.516787
     77 C25        -1.7020    3.5790   -1.5560 c3        1 MOL      0.169779
     78 C26        -0.6130    3.2730   -2.6570 c         1 MOL      0.564992
     79 O14        -0.4830    3.9790   -3.6100 o         1 MOL     -0.564029
     80 C27        -2.1420    5.0950   -1.4880 c3        1 MOL     -0.233534
     81 C28        -3.4710    5.2840   -0.7330 c3        1 MOL      0.214100
     82 C29        -3.9390    6.7150   -0.6930 c         1 MOL      0.492635
     83 N8         -4.9720    7.0530    0.0850 n         1 MOL     -0.724306
     84 O15        -3.5340    7.5430   -1.5080 o         1 MOL     -0.586467
     85 H33        -0.6630    3.4560    0.3530 hn        1 MOL      0.277945
     86 H34        -2.6080    3.0440   -1.8420 h1        1 MOL      0.102937
     87 H35        -2.3460    5.3290   -2.5370 hc        1 MOL      0.055822
     88 H36        -1.3220    5.7210   -1.1290 hc        1 MOL      0.055822
     89 H37        -3.3200    4.8970    0.2760 hc        1 MOL     -0.020444
     90 H38        -4.2380    4.7170   -1.2440 hc        1 MOL     -0.020444
     91 H39        -5.1920    6.4430    0.8540 hn        1 MOL      0.350798
     92 H40        -5.2200    8.0200   -0.0910 hn        1 MOL      0.350798
     93 N9          0.2400    2.2720   -2.5220 n         1 MOL     -0.476023
     94 C30         1.4260    1.8850   -3.4070 c3        1 MOL      0.229629
     95 C31         2.7650    2.2770   -2.7810 c         1 MOL      0.552762
     96 O16         3.0190    2.1220   -1.5680 o         1 MOL     -0.573615
     97 C32         1.4050    0.3850   -3.7390 c3        1 MOL      0.098989
     98 C33         2.5580   -0.2150   -4.5850 c3        1 MOL     -0.234271
     99 C34         0.0870    0.0320   -4.3960 c3        1 MOL     -0.234271
    100 H41        -0.0140    1.6290   -1.7920 hn        1 MOL      0.236654
    101 H42         1.4100    2.4190   -4.3580 h1        1 MOL      0.020146
    102 H43         1.4350   -0.1380   -2.7790 hc        1 MOL      0.079700
    103 H44         3.4470   -0.1540   -3.9600 hc        1 MOL      0.050526
    104 H45         2.3950   -1.2850   -4.6890 hc        1 MOL      0.050526
    105 H46         2.6940    0.2880   -5.5440 hc        1 MOL      0.050526
    106 H47        -0.1640   -1.0190   -4.5820 hc        1 MOL      0.050526
    107 H48        -0.7120    0.3750   -3.7500 hc        1 MOL      0.050526
    108 H49        -0.0060    0.5140   -5.3670 hc        1 MOL      0.050526
    109 N10         3.6520    2.9030   -3.6290 n         1 MOL     -0.679437
    110 C35         4.7660    3.7810   -3.1770 c3        1 MOL      0.387374
    111 C36         5.9220    3.1680   -2.4420 c         1 MOL      0.439583
    112 O17         7.0540    3.4860   -2.8030 o         1 MOL     -0.566617
    113 C37         4.1280    4.9850   -2.4750 c3        1 MOL     -0.488889
    114 C38         5.0360    5.9540   -1.7170 c         1 MOL      0.696786
    115 N11         6.0450    6.4760   -2.3950 n         1 MOL     -0.795973
    116 O18         4.8470    6.1700   -0.5470 o         1 MOL     -0.545364
    117 H50         3.3730    3.0080   -4.5970 hn        1 MOL      0.345145
    118 H51         5.2630    4.1180   -4.0900 h1        1 MOL     -0.002574
    119 H52         3.4920    4.7370   -1.6350 hc        1 MOL      0.159095
    120 H53         3.5110    5.4860   -3.2190 hc        1 MOL      0.159095
    121 H54         6.3720    6.0940   -3.2690 hn        1 MOL      0.353012
    122 H55         6.5840    7.2170   -1.9730 hn        1 MOL      0.353012
    123 N12         5.7230    2.2620   -1.4970 n         1 MOL     -0.441793
    124 C39         6.7930    1.7710   -0.6250 c3        1 MOL     -0.026622
    125 C40         6.5220    0.3720   -0.1330 c         1 MOL      0.739378
    126 O19         5.4090    0.1470    0.2990 o         1 MOL     -0.560265
    127 C41         6.8650    2.7920    0.4920 c3        1 MOL      0.056528
    128 C42         7.8820    2.5460    1.5600 ca        1 MOL     -0.116576
    129 C43         7.4120    2.1360    2.8120 ca        1 MOL     -0.053222
    130 C44         9.2160    2.5420    1.3270 ca        1 MOL     -0.053222
    131 C45         8.2580    1.8550    3.9050 ca        1 MOL     -0.336887
    132 C46        10.1190    2.2740    2.3510 ca        1 MOL     -0.336887
    133 C47         9.6590    1.9870    3.6710 ca        1 MOL      0.392062
    134 O20        10.6380    1.6590    4.5820 oh        1 MOL     -0.577087
    135 H56         4.7970    1.9220   -1.3010 hn        1 MOL      0.318119
    136 H57         7.7440    1.8270   -1.1740 h1        1 MOL      0.060673
    137 H58         5.8620    2.8830    0.9120 hc        1 MOL      0.056303
    138 H59         7.0980    3.7700    0.0750 hc        1 MOL      0.056303
    139 H60         6.3430    2.0050    2.9080 ha        1 MOL      0.102246
    140 H61         9.6660    2.8170    0.3870 ha        1 MOL      0.102246
    141 H62         7.8270    1.5420    4.8410 ha        1 MOL      0.170311
    142 H63        11.1810    2.1650    2.1510 ha        1 MOL      0.170311
    143 H64        10.3290    1.1440    5.3250 ho        1 MOL      0.443299
    144 N13         7.4140   -0.5600   -0.1230 n         1 MOL     -0.686931
    145 C48         7.3080   -1.9170    0.4630 c3        1 MOL      0.289853
    146 C49         6.0560   -2.8310    0.1310 c         1 MOL      0.334144
    147 O21         5.9050   -3.8690    0.7440 o         1 MOL     -0.482850
    148 C50         7.7380   -2.0050    1.9850 c3        1 MOL      0.022438
    149 C51         9.1600   -1.4280    2.2620 c3        1 MOL      0.016263
    150 C52         9.6090   -1.6890    3.7310 c         1 MOL      0.724184
    151 O22        10.8200   -1.8850    3.9040 o         1 MOL     -0.747443
    152 O23         8.7990   -1.6520    4.6650 o         1 MOL     -0.747443
    153 H65         8.2290   -0.4030   -0.7040 hn        1 MOL      0.299432
    154 H66         8.0560   -2.4980   -0.0740 h1        1 MOL      0.015922
    155 H67         7.8890   -3.0460    2.2680 hc        1 MOL      0.000568
    156 H68         6.9490   -1.5570    2.6010 hc        1 MOL      0.000568
    157 H69         9.1470   -0.3880    1.9390 hc        1 MOL     -0.056112
    158 H70         9.9290   -1.8290    1.6010 hc        1 MOL     -0.056112
    159 N14         5.2140   -2.4950   -0.8680 n         1 MOL     -0.235175
    160 C53         4.1690   -3.3940   -1.2870 c3        1 MOL     -0.139065
    161 C54         4.7870   -4.6010   -2.0390 c         1 MOL      0.579285
    162 O24         4.3880   -5.7620   -1.8160 o         1 MOL     -0.534158
    163 C55         3.2510   -2.6850   -2.2980 c3        1 MOL     -0.230478
    164 C56         1.9110   -3.3960   -2.4610 c3        1 MOL     -0.011234
    165 C57         1.0380   -3.3920   -1.2340 c         1 MOL      1.027797
    166 O25         1.2950   -4.2190   -0.2970 o         1 MOL     -0.872395
    167 O26         0.1300   -2.5400   -1.1540 o         1 MOL     -0.872395
    168 H71         5.3120   -1.7130   -1.5080 hn        1 MOL      0.188189
    169 H72         3.5550   -3.7530   -0.4560 h1        1 MOL      0.160773
    170 H73         3.6800   -2.4320   -3.2670 hc        1 MOL      0.053486
    171 H74         3.0260   -1.7080   -1.8860 hc        1 MOL      0.053486
    172 H75         2.0880   -4.4130   -2.8260 hc        1 MOL      0.008076
    173 H76         1.4380   -2.8370   -3.2580 hc        1 MOL      0.008076
    174 N15         5.8530   -4.3190   -2.8260 n         1 MOL     -0.303864
    175 C58         6.8250   -5.2590   -3.4420 c3        1 MOL     -0.266786
    176 H77         7.6500   -4.6950   -3.8770 h1        1 MOL      0.115140
    177 H78         7.2110   -5.9360   -2.6790 h1        1 MOL      0.115140
    178 H79         6.3290   -5.8350   -4.2230 h1        1 MOL      0.115140
    179 H80         6.0920   -3.3370   -2.7650 hn        1 MOL      0.212796
    180 Ca1        -0.7160   -3.6120    1.2040 Ca        1 MOL      1.804959
    181 O27        -2.7210   -1.9620    0.9980 oh        1 MOL     -0.827056
    182 H81        -3.4300   -2.1120    1.6280 ho        1 MOL      0.412490
    183 H82        -2.9840   -1.1820    0.5130 ho        1 MOL      0.412490
    184 O28         0.6580   -1.5090    2.0730 oh        1 MOL     -0.827056
    185 H83         1.1310   -1.1370    1.3300 ho        1 MOL      0.412490
    186 H84         1.0720   -1.1140    2.8350 ho        1 MOL      0.412490
    187 O29         1.4870   -4.4470    2.6280 oh        1 MOL     -0.827056
    188 H85         1.8050   -4.8310    3.4360 ho        1 MOL      0.412490
    189 H86         2.2050   -4.5800    1.9980 ho        1 MOL      0.412490
    190 O30        -0.5790   -6.2740    1.4150 oh        1 MOL     -0.827056
    191 H87        -1.4370   -6.6890    1.4660 ho        1 MOL      0.412490
    192 H88         0.0130   -6.9790    1.1360 ho        1 MOL      0.412490
    193 O31        -1.1700   -3.2310    3.8750 oh        1 MOL     -0.827056
    194 H89        -0.9360   -2.6050    4.5630 ho        1 MOL      0.412490
    195 H90        -2.0220   -3.5650    4.1460 ho        1 MOL      0.412490
@<TRIPOS>BOND
     1    1    2 1   
     2    1    4 1   
     3    1    5 1   
     4    1    6 1   
     5    2    3 2   
     6    2    7 1   
     7    7    8 1   
     8    7   15 1   
     9    8    9 1   
    10    8   11 1   
    11    8   16 1   
    12    9   10 2   
    13    9   19 1   
    14   11   12 1   
    15   11   17 1   
    16   11   18 1   
    17   12   13 1   
    18   12   14 1   
    19   19   20 1   
    20   19   27 1   
    21   20   21 1   
    22   20   23 1   
    23   20   28 1   
    24   21   22 2   
    25   21   38 1   
    26   23   24 1   
    27   23   25 1   
    28   23   29 1   
    29   24   26 1   
    30   24   30 1   
    31   24   31 1   
    32   25   32 1   
    33   25   33 1   
    34   25   34 1   
    35   26   35 1   
    36   26   36 1   
    37   26   37 1   
    38   38   39 1   
    39   38   46 1   
    40   39   40 1   
    41   39   42 1   
    42   39   47 1   
    43   40   41 2   
    44   40   50 1   
    45   42   43 1   
    46   42   48 1   
    47   42   49 1   
    48   43   44 1   
    49   43   45 1   
    50   50   51 1   
    51   50   54 1   
    52   51   52 1   
    53   51   55 1   
    54   51   56 1   
    55   52   53 2   
    56   52   57 1   
    57   57   58 1   
    58   57   65 1   
    59   58   59 1   
    60   58   61 1   
    61   58   66 1   
    62   59   60 2   
    63   59   69 1   
    64   61   62 1   
    65   61   67 1   
    66   61   68 1   
    67   62   63 1   
    68   62   64 1   
    69   69   70 1   
    70   69   73 1   
    71   70   71 1   
    72   70   74 1   
    73   70   75 1   
    74   71   72 2   
    75   71   76 1   
    76   76   77 1   
    77   76   85 1   
    78   77   78 1   
    79   77   80 1   
    80   77   86 1   
    81   78   79 2   
    82   78   93 1   
    83   80   81 1   
    84   80   87 1   
    85   80   88 1   
    86   81   82 1   
    87   81   89 1   
    88   81   90 1   
    89   82   83 1   
    90   82   84 2   
    91   83   91 1   
    92   83   92 1   
    93   93   94 1   
    94   93  100 1   
    95   94   95 1   
    96   94   97 1   
    97   94  101 1   
    98   95   96 2   
    99   95  109 1   
   100   97   98 1   
   101   97   99 1   
   102   97  102 1   
   103   98  103 1   
   104   98  104 1   
   105   98  105 1   
   106   99  106 1   
   107   99  107 1   
   108   99  108 1   
   109  109  110 1   
   110  109  117 1   
   111  110  111 1   
   112  110  113 1   
   113  110  118 1   
   114  111  112 2   
   115  111  123 1   
   116  113  114 1   
   117  113  119 1   
   118  113  120 1   
   119  114  115 1   
   120  114  116 2   
   121  115  121 1   
   122  115  122 1   
   123  123  124 1   
   124  123  135 1   
   125  124  125 1   
   126  124  127 1   
   127  124  136 1   
   128  125  126 2   
   129  125  144 1   
   130  127  128 1   
   131  127  137 1   
   132  127  138 1   
   133  128  129 ar  
   134  128  130 ar  
   135  129  131 ar  
   136  129  139 1   
   137  130  132 ar  
   138  130  140 1   
   139  131  133 ar  
   140  131  141 1   
   141  132  133 ar  
   142  132  142 1   
   143  133  134 1   
   144  134  143 1   
   145  144  145 1   
   146  144  153 1   
   147  145  146 1   
   148  145  148 1   
   149  145  154 1   
   150  146  147 2   
   151  146  159 1   
   152  148  149 1   
   153  148  155 1   
   154  148  156 1   
   155  149  150 1   
   156  149  157 1   
   157  149  158 1   
   158  150  151 1   
   159  150  152 1   
   160  159  160 1   
   161  159  168 1   
   162  160  161 1   
   163  160  163 1   
   164  160  169 1   
   165  161  162 2   
   166  161  174 1   
   167  163  164 1   
   168  163  170 1   
   169  163  171 1   
   170  164  165 1   
   171  164  172 1   
   172  164  173 1   
   173  165  166 1   
   174  165  167 1   
   175  174  175 1   
   176  174  179 1   
   177  175  176 1   
   178  175  177 1   
   179  175  178 1   
   180  181  182 1   
   181  181  183 1   
   182  184  185 1   
   183  184  186 1   
   184  187  188 1   
   185  187  189 1   
   186  190  191 1   
   187  190  192 1   
   188  193  194 1   
   189  193  195 1   
@<TRIPOS>SUBSTRUCTURE
     1 MOL         1 TEMP              0 ****  ****    0 ROOT
