@<TRIPOS>MOLECULE
MOL
  178   175     1     0     0
SMALL
resp


@<TRIPOS>ATOM
      1 C1          4.7140   -1.3870    2.7520 c3        1 MOL     -0.517588
      2 C2          5.9860   -0.6180    2.4090 c         1 MOL      0.720146
      3 O1          5.9120    0.6170    2.0860 o         1 MOL     -0.615223
      4 H1          4.9280   -2.4560    2.7620 hc        1 MOL      0.136979
      5 H2          4.3560   -1.0810    3.7340 hc        1 MOL      0.136979
      6 H3          3.9490   -1.1770    2.0040 hc        1 MOL      0.136979
      7 N1          7.1260   -1.3350    2.3540 n         1 MOL     -0.593265
      8 C3          8.4590   -0.8560    2.1930 c3        1 MOL      0.320039
      9 C4          8.9290   -0.7230    0.7710 c         1 MOL      0.506428
     10 O2          9.5320   -1.6520    0.1850 o         1 MOL     -0.489858
     11 C5          9.2550   -1.9230    3.0240 c3        1 MOL     -0.401227
     12 C6         10.8000   -1.6010    2.9860 c         1 MOL      0.747954
     13 O3         11.6210   -2.5930    2.8580 o         1 MOL     -0.729415
     14 O4         11.1850   -0.4210    3.0520 o         1 MOL     -0.729415
     15 H4          7.0640   -2.3380    2.3760 hn        1 MOL      0.322795
     16 H5          8.6000    0.1220    2.6660 h1        1 MOL      0.003802
     17 H6          9.0020   -2.8900    2.6060 hc        1 MOL      0.066061
     18 H7          8.9470   -1.9150    4.0710 hc        1 MOL      0.066061
     19 N2          8.6780    0.4650    0.1290 n         1 MOL     -0.554497
     20 C7          8.6210    0.5130   -1.3650 c3        1 MOL      0.381228
     21 C8          7.2040    0.1950   -2.0540 c         1 MOL      0.452999
     22 O5          7.1260   -0.0880   -3.2560 o         1 MOL     -0.549886
     23 C9          9.1410    1.8400   -1.8990 c3        1 MOL     -0.388789
     24 H8          8.3660    1.2820    0.6320 hn        1 MOL      0.291586
     25 H9          9.2270   -0.2690   -1.8110 h1        1 MOL      0.036519
     26 H10         8.8590    2.6560   -1.2250 hc        1 MOL      0.083798
     27 H11        10.2230    1.7430   -2.0000 hc        1 MOL      0.083798
     28 H12         8.8190    2.0750   -2.9080 hc        1 MOL      0.083798
     29 N3          6.1920   -0.0170   -1.2060 n         1 MOL     -0.549422
     30 C10         4.9230   -0.7100   -1.3820 c3        1 MOL      0.325175
     31 C11         4.2380   -0.3130   -2.7470 c         1 MOL      0.358030
     32 O6          3.6580   -1.1950   -3.4400 o         1 MOL     -0.415884
     33 C12         5.1190   -2.1570   -1.1160 c3        1 MOL     -0.144394
     34 C13         3.8320   -2.9070   -0.8070 c         1 MOL      0.745824
     35 O7          3.8730   -4.1590   -0.8520 o         1 MOL     -0.814847
     36 O8          2.7310   -2.3900   -0.7760 o         1 MOL     -0.814847
     37 H13         6.3480    0.3780   -0.2870 hn        1 MOL      0.233996
     38 H14         4.2550   -0.3140   -0.6150 h1        1 MOL      0.010217
     39 H15         5.6950   -2.2950   -0.1990 hc        1 MOL      0.043866
     40 H16         5.6630   -2.6080   -1.9420 hc        1 MOL      0.043866
     41 N4          4.4360    0.9470   -3.1270 n         1 MOL     -0.255566
     42 C14         4.1600    1.4310   -4.4720 c3        1 MOL     -0.085025
     43 C15         2.8930    2.2770   -4.7050 c         1 MOL      0.419229
     44 O9          2.4230    2.4870   -5.8670 o         1 MOL     -0.555721
     45 H17         5.0240    1.5190   -2.5490 hn        1 MOL      0.242837
     46 H18         4.1520    0.5500   -5.1210 h1        1 MOL      0.088324
     47 H19         4.9760    2.1110   -4.7090 h1        1 MOL      0.088324
     48 N5          2.3010    2.7750   -3.6380 n         1 MOL     -0.219198
     49 C16         1.0560    3.4920   -3.5760 c3        1 MOL      0.049695
     50 C17         1.2220    4.5180   -2.4990 c         1 MOL      0.393108
     51 O10         1.6940    4.0860   -1.4590 o         1 MOL     -0.439252
     52 C18        -0.0670    2.4340   -3.2580 c3        1 MOL     -0.283611
     53 C19        -1.3270    3.1270   -2.8370 c         1 MOL      0.554699
     54 N6         -1.5350    3.2360   -1.5750 n         1 MOL     -0.650262
     55 O11        -2.1440    3.5930   -3.6230 o         1 MOL     -0.583624
     56 H20         2.6890    2.5830   -2.7230 hn        1 MOL      0.152014
     57 H21         0.8760    3.9760   -4.5350 h1        1 MOL      0.057041
     58 H22         0.2320    1.8210   -2.4060 hc        1 MOL      0.148505
     59 H23        -0.1970    1.8530   -4.1720 hc        1 MOL      0.148505
     60 H24        -0.8440    2.8650   -0.9430 hn        1 MOL      0.355044
     61 H25        -2.3970    3.5820   -1.1530 hn        1 MOL      0.355044
     62 N7          0.8260    5.7670   -2.7090 n         1 MOL     -0.400844
     63 C20         0.6130    6.8040   -1.6820 c3        1 MOL     -0.089101
     64 C21        -0.5930    6.6950   -0.7880 c         1 MOL      0.545550
     65 O12        -1.7150    6.3980   -1.3160 o         1 MOL     -0.475183
     66 H26         0.4100    5.9680   -3.6120 hn        1 MOL      0.331651
     67 H27         0.6070    7.6890   -2.3230 h1        1 MOL      0.088219
     68 H28         1.5130    6.8720   -1.0730 h1        1 MOL      0.088219
     69 N8         -0.4200    6.8640    0.5330 n         1 MOL     -0.540676
     70 C22        -1.5560    7.0030    1.4700 c3        1 MOL      0.020236
     71 C23        -2.3210    5.7980    2.0300 c         1 MOL      0.355769
     72 O13        -3.5300    5.7780    2.2680 o         1 MOL     -0.528802
     73 C24        -1.1980    7.7600    2.7460 c3        1 MOL      0.483484
     74 C25        -0.1190    7.0240    3.5970 c3        1 MOL     -0.433153
     75 O14        -0.7710    9.0010    2.2880 oh        1 MOL     -0.649930
     76 H29         0.4810    7.1570    0.8630 hn        1 MOL      0.285238
     77 H30        -2.3620    7.5980    1.0560 h1        1 MOL      0.087645
     78 H31        -2.1110    7.8300    3.3400 h1        1 MOL      0.028630
     79 H32         0.1110    8.8560    1.9320 ho        1 MOL      0.381509
     80 H33         0.3150    7.8160    4.2130 hc        1 MOL      0.105186
     81 H34        -0.6300    6.2120    4.1100 hc        1 MOL      0.105186
     82 H35         0.6760    6.5720    3.0110 hc        1 MOL      0.105186
     83 N9         -1.5800    4.6580    2.2880 n         1 MOL     -0.240371
     84 C26        -2.1800    3.2620    2.5720 c3        1 MOL      0.278670
     85 C27        -1.5720    2.2310    1.6340 c         1 MOL      0.126957
     86 O15        -0.4920    2.4780    0.9820 o         1 MOL     -0.489327
     87 C28        -1.9170    2.8430    4.0940 c3        1 MOL      0.186951
     88 C29        -0.4580    3.1110    4.5870 c3        1 MOL     -0.130985
     89 C30        -2.8700    3.5910    5.0550 c3        1 MOL     -0.348714
     90 C31         0.5510    1.9780    4.2370 c3        1 MOL     -0.037930
     91 H36        -0.5740    4.7320    2.2640 hn        1 MOL      0.209977
     92 H37        -3.2580    3.2800    2.4210 h1        1 MOL      0.035795
     93 H38        -2.2170    1.8040    4.1780 hc        1 MOL     -0.000327
     94 H39        -0.4660    3.1870    5.6810 hc        1 MOL      0.024390
     95 H40        -0.1410    4.0650    4.1480 hc        1 MOL      0.024390
     96 H41        -2.6180    4.6530    5.1100 hc        1 MOL      0.075285
     97 H42        -3.9160    3.4190    4.8200 hc        1 MOL      0.075285
     98 H43        -2.5780    3.1260    5.9960 hc        1 MOL      0.075285
     99 H44         0.1860    1.0100    4.5730 hc        1 MOL      0.032784
    100 H45         0.7650    1.9470    3.1680 hc        1 MOL      0.032784
    101 H46         1.5110    2.1970    4.7170 hc        1 MOL      0.032784
    102 N10        -2.1800    1.0810    1.6670 n         1 MOL     -0.569837
    103 C32        -1.8040   -0.0020    0.6900 c3        1 MOL      0.922691
    104 C33        -3.1350   -0.3850   -0.0530 c         1 MOL      0.165019
    105 O16        -3.2530   -1.5650   -0.4470 o         1 MOL     -0.361616
    106 C34        -1.0610   -1.2020    1.4240 c3        1 MOL     -0.523006
    107 C35        -0.3430   -2.1980    0.4930 c         1 MOL      0.826462
    108 O17        -0.5180   -2.0520   -0.7360 o         1 MOL     -0.716483
    109 O18         0.2410   -3.1520    1.0230 o         1 MOL     -0.716483
    110 H47        -3.0670    1.0590    2.1290 hn        1 MOL      0.283677
    111 H48        -1.2310    0.4940   -0.0890 h1        1 MOL     -0.110671
    112 H49        -1.7850   -1.7740    2.0110 hc        1 MOL      0.082705
    113 H50        -0.2740   -0.7630    2.0360 hc        1 MOL      0.082705
    114 N11        -4.0290    0.5590   -0.2720 n         1 MOL     -0.393531
    115 C36        -5.2790    0.2430   -0.8950 c3        1 MOL      0.277583
    116 C37        -5.9320   -0.9750   -0.1960 c         1 MOL      0.272487
    117 O19        -6.0160   -0.9150    1.0650 o         1 MOL     -0.560967
    118 C38        -6.1830    1.4330   -0.8250 c3        1 MOL     -0.343515
    119 C39        -7.6350    1.1900   -1.2630 ca        1 MOL      0.122748
    120 C40        -7.9540    1.1390   -2.6510 ca        1 MOL     -0.173187
    121 C41        -8.6870    1.1850   -0.3460 ca        1 MOL     -0.173187
    122 C42        -9.2970    0.9340   -3.0590 ca        1 MOL     -0.109409
    123 C43       -10.0470    0.8740   -0.7110 ca        1 MOL     -0.109409
    124 C44       -10.3060    0.7700   -2.0870 ca        1 MOL     -0.116449
    125 H51        -3.8810    1.5140    0.0330 hn        1 MOL      0.244232
    126 H52        -5.0410    0.1610   -1.9480 h1        1 MOL      0.042457
    127 H53        -5.7560    2.2470   -1.4020 hc        1 MOL      0.124280
    128 H54        -6.2660    1.7490    0.2160 hc        1 MOL      0.124280
    129 H55        -7.2360    1.3770   -3.4270 ha        1 MOL      0.131260
    130 H56        -8.4320    1.3510    0.6840 ha        1 MOL      0.131260
    131 H57        -9.5790    0.9910   -4.1000 ha        1 MOL      0.114246
    132 H58       -10.8450    0.8570    0.0320 ha        1 MOL      0.114246
    133 H59       -11.2890    0.6220   -2.5040 ha        1 MOL      0.094299
    134 N12        -6.4050   -2.0820   -0.8240 n         1 MOL      0.158973
    135 C45        -7.1650   -3.1220   -0.1760 c3        1 MOL     -0.097477
    136 C46        -6.4840   -3.9890    0.8810 c         1 MOL      0.459791
    137 O20        -7.1070   -4.9150    1.4190 o         1 MOL     -0.534257
    138 C47        -7.8170   -3.9200   -1.3360 c3        1 MOL     -0.047780
    139 C48        -6.8050   -3.7540   -2.4930 c3        1 MOL      0.008986
    140 C49        -6.2580   -2.2990   -2.2410 c3        1 MOL     -0.050593
    141 H60        -7.9410   -2.5340    0.3260 h1        1 MOL      0.078221
    142 H61        -7.9840   -4.9780   -1.1420 hc        1 MOL      0.023633
    143 H62        -8.7430   -3.3950   -1.5860 hc        1 MOL      0.023633
    144 H63        -6.0290   -4.5100   -2.4160 hc        1 MOL      0.027892
    145 H64        -7.3000   -3.8950   -3.4510 hc        1 MOL      0.027892
    146 H65        -5.2500   -2.2340   -2.6560 h1        1 MOL      0.009823
    147 H66        -6.8650   -1.5320   -2.7250 h1        1 MOL      0.009823
    148 N13        -5.1640   -3.8280    1.0650 n         1 MOL     -0.281397
    149 C50        -4.3490   -4.6610    1.9360 c3        1 MOL      0.054484
    150 C51        -4.3440   -4.1100    3.3470 c         1 MOL      0.483848
    151 O21        -4.7070   -4.8330    4.2710 o         1 MOL     -0.543831
    152 C52        -2.9300   -4.7670    1.3070 c3        1 MOL      0.201860
    153 C53        -2.8140   -5.8880    0.2390 c3        1 MOL     -0.132196
    154 C54        -1.5000   -5.7540   -0.4220 c         1 MOL      0.695280
    155 O22        -0.5330   -6.2460    0.1630 o         1 MOL     -0.748534
    156 O23        -1.3420   -5.2100   -1.4900 o         1 MOL     -0.748534
    157 H67        -4.7100   -3.2930    0.3380 hn        1 MOL      0.161365
    158 H68        -4.7520   -5.6600    2.0770 h1        1 MOL      0.043113
    159 H69        -2.1370   -5.0160    2.0170 hc        1 MOL     -0.064993
    160 H70        -2.6920   -3.8240    0.8320 hc        1 MOL     -0.064993
    161 H71        -3.5820   -5.7700   -0.5220 hc        1 MOL      0.014753
    162 H72        -2.9730   -6.8610    0.7010 hc        1 MOL      0.014753
    163 N14        -4.0220   -2.8140    3.5200 n         1 MOL     -0.234351
    164 C55        -3.7960   -2.1230    4.8140 c3        1 MOL     -0.274411
    165 H73        -2.8980   -2.5200    5.2860 h1        1 MOL      0.111836
    166 H74        -3.6710   -1.0540    4.6400 h1        1 MOL      0.111836
    167 H75        -4.6530   -2.2860    5.4680 h1        1 MOL      0.111836
    168 H76        -3.8160   -2.3290    2.6630 hn        1 MOL      0.204327
    169 Ca1         1.2820   -4.5310   -0.8240 Ca        1 MOL      1.779588
    170 O24         2.3540   -6.0180    1.1460 oh        1 MOL     -0.819444
    171 H77         2.3830   -5.8400    2.0800 ho        1 MOL      0.402844
    172 H78         2.4160   -6.9700    1.0750 ho        1 MOL      0.402844
    173 O25         1.6260   -6.8590   -2.1410 oh        1 MOL     -0.819444
    174 H79         1.8960   -6.9130   -3.0620 ho        1 MOL      0.402844
    175 H80         1.8190   -7.7210   -1.7840 ho        1 MOL      0.402844
    176 O26         0.6440   -4.2860   -3.5260 oh        1 MOL     -0.819444
    177 H81         0.1230   -5.0790   -3.5800 ho        1 MOL      0.402844
    178 H82         0.7260   -3.9890   -4.4300 ho        1 MOL      0.402844
@<TRIPOS>BOND
     1    1    2 1   
     2    1    4 1   
     3    1    5 1   
     4    1    6 1   
     5    2    3 2   
     6    2    7 1   
     7    7    8 1   
     8    7   15 1   
     9    8    9 1   
    10    8   11 1   
    11    8   16 1   
    12    9   10 2   
    13    9   19 1   
    14   11   12 1   
    15   11   17 1   
    16   11   18 1   
    17   12   13 1   
    18   12   14 1   
    19   19   20 1   
    20   19   24 1   
    21   20   21 1   
    22   20   23 1   
    23   20   25 1   
    24   21   22 2   
    25   21   29 1   
    26   23   26 1   
    27   23   27 1   
    28   23   28 1   
    29   29   30 1   
    30   29   37 1   
    31   30   31 1   
    32   30   33 1   
    33   30   38 1   
    34   31   32 2   
    35   31   41 1   
    36   33   34 1   
    37   33   39 1   
    38   33   40 1   
    39   34   35 1   
    40   34   36 1   
    41   41   42 1   
    42   41   45 1   
    43   42   43 1   
    44   42   46 1   
    45   42   47 1   
    46   43   44 2   
    47   43   48 1   
    48   48   49 1   
    49   48   56 1   
    50   49   50 1   
    51   49   52 1   
    52   49   57 1   
    53   50   51 2   
    54   50   62 1   
    55   52   53 1   
    56   52   58 1   
    57   52   59 1   
    58   53   54 1   
    59   53   55 2   
    60   54   60 1   
    61   54   61 1   
    62   62   63 1   
    63   62   66 1   
    64   63   64 1   
    65   63   67 1   
    66   63   68 1   
    67   64   65 2   
    68   64   69 1   
    69   69   70 1   
    70   69   76 1   
    71   70   71 1   
    72   70   73 1   
    73   70   77 1   
    74   71   72 2   
    75   71   83 1   
    76   73   74 1   
    77   73   75 1   
    78   73   78 1   
    79   74   80 1   
    80   74   81 1   
    81   74   82 1   
    82   75   79 1   
    83   83   84 1   
    84   83   91 1   
    85   84   85 1   
    86   84   87 1   
    87   84   92 1   
    88   85   86 2   
    89   85  102 1   
    90   87   88 1   
    91   87   89 1   
    92   87   93 1   
    93   88   90 1   
    94   88   94 1   
    95   88   95 1   
    96   89   96 1   
    97   89   97 1   
    98   89   98 1   
    99   90   99 1   
   100   90  100 1   
   101   90  101 1   
   102  102  103 1   
   103  102  110 1   
   104  103  104 1   
   105  103  106 1   
   106  103  111 1   
   107  104  105 2   
   108  104  114 1   
   109  106  107 1   
   110  106  112 1   
   111  106  113 1   
   112  107  108 1   
   113  107  109 1   
   114  114  115 1   
   115  114  125 1   
   116  115  116 1   
   117  115  118 1   
   118  115  126 1   
   119  116  117 2   
   120  116  134 1   
   121  118  119 1   
   122  118  127 1   
   123  118  128 1   
   124  119  120 ar  
   125  119  121 ar  
   126  120  122 ar  
   127  120  129 1   
   128  121  123 ar  
   129  121  130 1   
   130  122  124 ar  
   131  122  131 1   
   132  123  124 ar  
   133  123  132 1   
   134  124  133 1   
   135  134  135 1   
   136  134  140 1   
   137  135  136 1   
   138  135  138 1   
   139  135  141 1   
   140  136  137 2   
   141  136  148 1   
   142  138  139 1   
   143  138  142 1   
   144  138  143 1   
   145  139  140 1   
   146  139  144 1   
   147  139  145 1   
   148  140  146 1   
   149  140  147 1   
   150  148  149 1   
   151  148  157 1   
   152  149  150 1   
   153  149  152 1   
   154  149  158 1   
   155  150  151 2   
   156  150  163 1   
   157  152  153 1   
   158  152  159 1   
   159  152  160 1   
   160  153  154 1   
   161  153  161 1   
   162  153  162 1   
   163  154  155 1   
   164  154  156 1   
   165  163  164 1   
   166  163  168 1   
   167  164  165 1   
   168  164  166 1   
   169  164  167 1   
   170  170  171 1   
   171  170  172 1   
   172  173  174 1   
   173  173  175 1   
   174  176  177 1   
   175  176  178 1   
@<TRIPOS>SUBSTRUCTURE
     1 MOL         1 TEMP              0 ****  ****    0 ROOT
