@<TRIPOS>MOLECULE
MOL
  198   191     1     0     0
SMALL
resp


@<TRIPOS>ATOM
      1 C1         -5.5700    5.5970    1.3930 c3        1 MOL     -0.395703
      2 C2         -4.8820    4.5430    0.5090 c         1 MOL      0.587613
      3 O1         -5.5700    3.9870   -0.3840 o         1 MOL     -0.543678
      4 H1         -5.1370    5.5690    2.3930 hc        1 MOL      0.111016
      5 H2         -5.4220    6.5870    0.9620 hc        1 MOL      0.111016
      6 H3         -6.6360    5.3820    1.4530 hc        1 MOL      0.111016
      7 N1         -3.5450    4.2120    0.6280 n         1 MOL     -0.274024
      8 C3         -2.5600    4.7910    1.5300 c3        1 MOL     -0.086117
      9 C4         -1.6150    5.7600    0.8190 c         1 MOL      0.481843
     10 O2         -1.1190    6.7440    1.3950 o         1 MOL     -0.539754
     11 C5         -1.7300    3.6870    2.1880 c3        1 MOL     -0.142558
     12 C6         -2.4510    2.4840    2.7190 c         1 MOL      0.703986
     13 O3         -2.5720    1.5240    1.9410 o         1 MOL     -0.713638
     14 O4         -2.7480    2.3540    3.9280 o         1 MOL     -0.713638
     15 H4         -3.2870    3.5230   -0.0690 hn        1 MOL      0.168473
     16 H5         -3.1330    5.2980    2.3140 h1        1 MOL      0.071484
     17 H6         -1.1290    4.1890    2.9420 hc        1 MOL      0.046659
     18 H7         -1.1650    3.3080    1.3450 hc        1 MOL      0.046659
     19 N2         -1.3470    5.5180   -0.5150 n         1 MOL     -0.066497
     20 C7         -0.6470    6.4940   -1.3480 c3        1 MOL     -0.719644
     21 C8          0.8620    6.4190   -1.2390 c         1 MOL      0.674051
     22 O5          1.5200    7.3130   -1.7370 o         1 MOL     -0.554849
     23 C9         -1.1120    6.5750   -2.7810 c3        1 MOL      0.366692
     24 C10        -0.5460    5.3210   -3.5610 c3        1 MOL      0.077458
     25 C11        -2.6740    6.7400   -2.8770 c3        1 MOL     -0.280484
     26 C12        -0.9420    5.3800   -5.0510 c3        1 MOL     -0.316682
     27 H8         -1.7710    4.7360   -0.9870 hn        1 MOL      0.142121
     28 H9         -0.9470    7.4550   -0.9200 h1        1 MOL      0.235612
     29 H10        -0.6280    7.4510   -3.2130 hc        1 MOL     -0.027011
     30 H11        -0.9730    4.3970   -3.1730 hc        1 MOL      0.044349
     31 H12         0.5520    5.2930   -3.5800 hc        1 MOL      0.044349
     32 H13        -3.1940    5.8830   -2.4530 hc        1 MOL      0.059988
     33 H14        -2.9210    7.6700   -2.3680 hc        1 MOL      0.059988
     34 H15        -2.9440    6.8190   -3.9360 hc        1 MOL      0.059988
     35 H16        -1.9850    5.1360   -5.2370 hc        1 MOL      0.061846
     36 H17        -0.8580    6.4320   -5.3180 hc        1 MOL      0.061846
     37 H18        -0.3160    4.6660   -5.5960 hc        1 MOL      0.061846
     38 N3          1.4860    5.5050   -0.5130 n         1 MOL     -0.351434
     39 C13         2.9700    5.3180   -0.4730 c3        1 MOL     -0.049329
     40 C14         3.4080    4.4560    0.7270 c         1 MOL      0.562392
     41 O6          2.6540    3.6270    1.1950 o         1 MOL     -0.555721
     42 C15         3.4890    4.7310   -1.7600 c3        1 MOL     -0.399973
     43 C16         5.0340    4.7840   -1.8650 c         1 MOL      0.777601
     44 O7          5.7240    4.0630   -2.6390 o         1 MOL     -0.703464
     45 O8          5.6030    5.6740   -1.1140 o         1 MOL     -0.703464
     46 H19         0.9680    4.8830    0.1000 hn        1 MOL      0.260866
     47 H20         3.4570    6.2900   -0.4090 h1        1 MOL      0.079434
     48 H21         3.1080    5.3720   -2.5490 hc        1 MOL      0.104837
     49 H22         3.1730    3.6940   -1.8500 hc        1 MOL      0.104837
     50 N4          4.6080    4.7280    1.2400 n         1 MOL     -0.440354
     51 C17         5.4200    3.8010    2.0480 c3        1 MOL     -0.004306
     52 C18         5.8450    2.4720    1.4140 c         1 MOL      0.658889
     53 O9          5.1990    1.9260    0.5380 o         1 MOL     -0.494728
     54 H23         5.1260    5.4770    0.8000 hn        1 MOL      0.274804
     55 H24         4.8080    3.5180    2.9010 h1        1 MOL      0.033485
     56 H25         6.3230    4.2730    2.4270 h1        1 MOL      0.033485
     57 N5          7.0210    1.9800    1.8300 n         1 MOL     -0.643801
     58 C19         7.6080    0.7080    1.4660 c3        1 MOL      0.148422
     59 C20         8.0420    0.7230   -0.0440 c         1 MOL      0.734517
     60 O10         8.8520    1.5580   -0.5380 o         1 MOL     -0.593015
     61 C21         8.7790    0.3560    2.3890 c3        1 MOL     -0.401369
     62 C22         9.3300   -0.9990    2.1190 c         1 MOL      0.804538
     63 O11         8.7070   -1.9830    2.4700 o         1 MOL     -0.749187
     64 O12        10.4730   -1.1270    1.5730 o         1 MOL     -0.749187
     65 H26         7.5640    2.5890    2.4350 hn        1 MOL      0.308270
     66 H27         6.8640   -0.0600    1.6740 h1        1 MOL      0.072243
     67 H28         8.4680    0.2670    3.4360 hc        1 MOL      0.080545
     68 H29         9.5560    1.1120    2.3190 hc        1 MOL      0.080545
     69 N6          7.5610   -0.1550   -0.9000 n         1 MOL     -0.675145
     70 C23         6.6530   -1.3490   -0.4600 c3        1 MOL      0.209815
     71 C24         6.6020   -2.5040   -1.5670 c         1 MOL      0.568642
     72 O13         6.9270   -2.1840   -2.7210 o         1 MOL     -0.533674
     73 H30         7.6440    0.1760   -1.8480 hn        1 MOL      0.375288
     74 H31         5.6920   -0.9980   -0.0960 h1        1 MOL      0.019671
     75 H32         7.1050   -1.7940    0.4250 h1        1 MOL      0.019671
     76 N7          6.1740   -3.7980   -1.3380 n         1 MOL     -0.656072
     77 C25         5.6460   -4.2320   -0.0640 c3        1 MOL      0.277235
     78 C26         4.4720   -3.3380    0.4370 c         1 MOL      0.045352
     79 O14         4.6100   -2.8410    1.5280 o         1 MOL     -0.454116
     80 C27         6.7640   -4.5320    1.0460 c3        1 MOL      0.029190
     81 C28         6.3310   -5.8620    1.7540 c3        1 MOL     -0.107911
     82 C29         5.1020   -5.7070    2.5530 c         1 MOL      0.597197
     83 N8          5.2410   -4.9530    3.6250 n         1 MOL     -0.790757
     84 O15         4.0040   -6.2150    2.2580 o         1 MOL     -0.566992
     85 H33         6.2900   -4.4810   -2.0700 hn        1 MOL      0.332238
     86 H34         5.1130   -5.1380   -0.3330 h1        1 MOL      0.042399
     87 H35         6.9440   -3.7050    1.7300 hc        1 MOL      0.042369
     88 H36         7.7130   -4.8380    0.5950 hc        1 MOL      0.042369
     89 H37         7.1640   -6.1460    2.3960 hc        1 MOL      0.014048
     90 H38         6.1720   -6.6060    0.9760 hc        1 MOL      0.014048
     91 H39         6.1150   -4.4610    3.7630 hn        1 MOL      0.372848
     92 H40         4.4010   -4.5900    4.0480 hn        1 MOL      0.372848
     93 N9          3.4950   -3.1280   -0.3790 n         1 MOL     -0.015716
     94 C30         2.4700   -2.1080   -0.1480 c3        1 MOL     -0.188838
     95 C31         2.0710   -1.4330   -1.5040 c         1 MOL      0.424294
     96 O16         2.2580   -2.0250   -2.5540 o         1 MOL     -0.515041
     97 C32         1.1840   -2.6130    0.5500 c3        1 MOL      0.233383
     98 C33         1.3550   -3.2350    1.9490 c3        1 MOL     -0.145109
     99 C34         0.4760   -3.6950   -0.3970 c3        1 MOL     -0.145109
    100 H41         3.5120   -3.6090   -1.2700 hn        1 MOL      0.198283
    101 H42         2.8650   -1.3260    0.5120 h1        1 MOL      0.103115
    102 H43         0.4890   -1.7820    0.6340 hc        1 MOL      0.044133
    103 H44         1.6050   -2.4750    2.6970 hc        1 MOL      0.029499
    104 H45         0.4450   -3.6160    2.4100 hc        1 MOL      0.029499
    105 H46         2.0400   -4.0800    1.9710 hc        1 MOL      0.029499
    106 H47        -0.4630   -3.8670    0.1320 hc        1 MOL      0.029499
    107 H48         0.2060   -3.2580   -1.3580 hc        1 MOL      0.029499
    108 H49         1.1080   -4.5740   -0.5250 hc        1 MOL      0.029499
    109 N10         1.4310   -0.2870   -1.4560 n         1 MOL     -0.192812
    110 C35         0.7750    0.4310   -2.5650 c3        1 MOL      0.072970
    111 C36        -0.4380   -0.2500   -3.2190 c         1 MOL      0.446480
    112 O17        -0.8800    0.2180   -4.2250 o         1 MOL     -0.519501
    113 C37         0.4500    1.8270   -2.0510 c3        1 MOL     -0.438959
    114 C38        -0.7750    1.9510   -1.1500 c         1 MOL      0.421307
    115 N11        -0.7460    1.3440    0.0130 n         1 MOL     -0.609551
    116 O18        -1.7480    2.6500   -1.3320 o         1 MOL     -0.405623
    117 H50         1.4960    0.1400   -0.5410 hn        1 MOL      0.154790
    118 H51         1.3980    0.6190   -3.4400 h1        1 MOL      0.103381
    119 H52         0.4280    2.4460   -2.9550 hc        1 MOL      0.163243
    120 H53         1.3140    2.1840   -1.4970 hc        1 MOL      0.163243
    121 H54         0.0470    0.8760    0.4320 hn        1 MOL      0.381886
    122 H55        -1.5190    1.4890    0.6470 hn        1 MOL      0.381886
    123 N12        -1.0090   -1.2970   -2.6410 n         1 MOL     -0.091450
    124 C39        -2.3520   -1.7980   -3.0910 c3        1 MOL      0.068999
    125 C40        -3.1230   -2.3890   -1.9060 c         1 MOL      0.448485
    126 O19        -2.4960   -2.8900   -0.9300 o         1 MOL     -0.413333
    127 C41        -2.3340   -2.7760   -4.2470 c3        1 MOL      0.092024
    128 C42        -1.2090   -3.8290   -4.2430 ca        1 MOL     -0.037358
    129 C43        -1.5480   -5.1830   -3.9880 ca        1 MOL     -0.092749
    130 C44         0.1830   -3.5010   -4.3090 ca        1 MOL     -0.092749
    131 C45        -0.5430   -6.1550   -3.8770 ca        1 MOL     -0.350394
    132 C46         1.1550   -4.4950   -4.1550 ca        1 MOL     -0.350394
    133 C47         0.8080   -5.8680   -3.9570 ca        1 MOL      0.466784
    134 O20         1.7500   -6.7570   -4.1490 oh        1 MOL     -0.557181
    135 H56        -0.5780   -1.5970   -1.7780 hn        1 MOL     -0.067535
    136 H57        -2.9810   -0.9670   -3.4040 h1        1 MOL      0.052270
    137 H58        -2.1780   -2.1640   -5.1380 hc        1 MOL     -0.022685
    138 H59        -3.3250   -3.2300   -4.2040 hc        1 MOL     -0.022685
    139 H60        -2.5780   -5.5010   -3.8640 ha        1 MOL      0.140284
    140 H61         0.5350   -2.4870   -4.4730 ha        1 MOL      0.140284
    141 H62        -0.8000   -7.1890   -3.6830 ha        1 MOL      0.157088
    142 H63         2.1960   -4.1880   -4.1520 ha        1 MOL      0.157088
    143 H64         2.6280   -6.3760   -4.2670 ho        1 MOL      0.398839
    144 N13        -4.4910   -2.3860   -1.9390 n         1 MOL     -0.495881
    145 C48        -5.2950   -2.9700   -0.8680 c3        1 MOL      0.373708
    146 C49        -6.5680   -2.1070   -0.6390 c         1 MOL      0.407422
    147 O21        -7.6450   -2.1860   -1.2420 o         1 MOL     -0.533766
    148 C50        -5.6990   -4.4310   -1.2570 c3        1 MOL     -0.335307
    149 C51        -6.2450   -5.2930   -0.0810 c3        1 MOL     -0.111788
    150 C52        -6.8420   -6.5840   -0.4800 c         1 MOL      0.696748
    151 O22        -6.0490   -7.3900   -1.0290 o         1 MOL     -0.717452
    152 O23        -7.9430   -6.9500   -0.0140 o         1 MOL     -0.717452
    153 H65        -4.9840   -1.8470   -2.6470 hn        1 MOL      0.283911
    154 H66        -4.7720   -3.0660    0.0870 h1        1 MOL     -0.096264
    155 H67        -4.7850   -4.9430   -1.5570 hc        1 MOL      0.088002
    156 H68        -6.4140   -4.3790   -2.0790 hc        1 MOL      0.088002
    157 H69        -6.9720   -4.7020    0.4680 hc        1 MOL      0.051719
    158 H70        -5.4410   -5.5240    0.6140 hc        1 MOL      0.051719
    159 N14        -6.3550   -0.9470   -0.0320 n         1 MOL     -0.173263
    160 C53        -7.2940    0.1610    0.1580 c3        1 MOL     -0.011909
    161 C54        -7.3290    1.1950   -1.0260 c         1 MOL      0.331629
    162 O24        -8.2450    2.0010   -1.2700 o         1 MOL     -0.539144
    163 C55        -7.0940    0.8700    1.5140 c3        1 MOL      0.082793
    164 C56        -7.4270    0.0170    2.7500 c3        1 MOL     -0.349162
    165 C57        -6.3190   -1.0690    3.0220 c         1 MOL      0.739417
    166 O25        -6.7630   -2.1650    3.5120 o         1 MOL     -0.716629
    167 O26        -5.1160   -0.8880    2.8170 o         1 MOL     -0.716629
    168 H71        -5.4440   -0.7840    0.3690 hn        1 MOL      0.150376
    169 H72        -8.2920   -0.2660    0.2110 h1        1 MOL      0.098169
    170 H73        -7.7780    1.7110    1.5160 hc        1 MOL     -0.003285
    171 H74        -6.0620    1.2130    1.5110 hc        1 MOL     -0.003285
    172 H75        -8.3960   -0.4300    2.5690 hc        1 MOL      0.086687
    173 H76        -7.5440    0.5610    3.6890 hc        1 MOL      0.086687
    174 N15        -6.2650    1.1200   -1.7830 n         1 MOL     -0.015849
    175 C58        -6.0360    1.5270   -3.1430 c3        1 MOL     -0.217717
    176 H77        -5.0020    1.8560   -3.2530 h1        1 MOL      0.088696
    177 H78        -6.2220    0.6870   -3.8110 h1        1 MOL      0.088696
    178 H79        -6.7070    2.3480   -3.3940 h1        1 MOL      0.088696
    179 H80        -5.5600    0.5520   -1.3500 hn        1 MOL      0.118458
    180 Ca1        -2.8670   -0.2940    3.8550 Ca        1 MOL      1.680809
    181 O27        -0.0040    0.5610    3.3670 oh        1 MOL     -0.822803
    182 H81         0.3560    0.7240    4.2460 ho        1 MOL      0.400495
    183 H82         0.7620    0.6120    2.7850 ho        1 MOL      0.400495
    184 O28        -1.9990   -1.5300    1.6420 oh        1 MOL     -0.822803
    185 H83        -2.3090   -1.7010    0.7550 ho        1 MOL      0.400495
    186 H84        -2.1580   -2.3560    2.1030 ho        1 MOL      0.400495
    187 O29        -1.6910    0.2180    6.0200 oh        1 MOL     -0.822803
    188 H85        -1.7890   -0.3660    6.7770 ho        1 MOL      0.400495
    189 H86        -1.3990    1.0420    6.3970 ho        1 MOL      0.400495
    190 O30        -4.8090    0.7190    5.5750 oh        1 MOL     -0.822803
    191 H87        -5.1940    0.4170    6.3900 ho        1 MOL      0.400495
    192 H88        -5.0300    1.6500    5.5420 ho        1 MOL      0.400495
    193 O31        -0.9000   -2.1260    4.2220 oh        1 MOL     -0.822803
    194 H89        -1.2390   -2.8390    4.7660 ho        1 MOL      0.400495
    195 H90        -0.0120   -1.9780    4.5430 ho        1 MOL      0.400495
    196 O32        -3.6890   -2.3580    5.3030 oh        1 MOL     -0.822803
    197 H91        -3.1700   -3.1110    5.5810 ho        1 MOL      0.400495
    198 H92        -4.5620   -2.5290    5.6550 ho        1 MOL      0.400495
@<TRIPOS>BOND
     1    1    2 1   
     2    1    4 1   
     3    1    5 1   
     4    1    6 1   
     5    2    3 2   
     6    2    7 1   
     7    7    8 1   
     8    7   15 1   
     9    8    9 1   
    10    8   11 1   
    11    8   16 1   
    12    9   10 2   
    13    9   19 1   
    14   11   12 1   
    15   11   17 1   
    16   11   18 1   
    17   12   13 1   
    18   12   14 1   
    19   19   20 1   
    20   19   27 1   
    21   20   21 1   
    22   20   23 1   
    23   20   28 1   
    24   21   22 2   
    25   21   38 1   
    26   23   24 1   
    27   23   25 1   
    28   23   29 1   
    29   24   26 1   
    30   24   30 1   
    31   24   31 1   
    32   25   32 1   
    33   25   33 1   
    34   25   34 1   
    35   26   35 1   
    36   26   36 1   
    37   26   37 1   
    38   38   39 1   
    39   38   46 1   
    40   39   40 1   
    41   39   42 1   
    42   39   47 1   
    43   40   41 2   
    44   40   50 1   
    45   42   43 1   
    46   42   48 1   
    47   42   49 1   
    48   43   44 1   
    49   43   45 1   
    50   50   51 1   
    51   50   54 1   
    52   51   52 1   
    53   51   55 1   
    54   51   56 1   
    55   52   53 2   
    56   52   57 1   
    57   57   58 1   
    58   57   65 1   
    59   58   59 1   
    60   58   61 1   
    61   58   66 1   
    62   59   60 2   
    63   59   69 1   
    64   61   62 1   
    65   61   67 1   
    66   61   68 1   
    67   62   63 1   
    68   62   64 1   
    69   69   70 1   
    70   69   73 1   
    71   70   71 1   
    72   70   74 1   
    73   70   75 1   
    74   71   72 2   
    75   71   76 1   
    76   76   77 1   
    77   76   85 1   
    78   77   78 1   
    79   77   80 1   
    80   77   86 1   
    81   78   79 2   
    82   78   93 1   
    83   80   81 1   
    84   80   87 1   
    85   80   88 1   
    86   81   82 1   
    87   81   89 1   
    88   81   90 1   
    89   82   83 1   
    90   82   84 2   
    91   83   91 1   
    92   83   92 1   
    93   93   94 1   
    94   93  100 1   
    95   94   95 1   
    96   94   97 1   
    97   94  101 1   
    98   95   96 2   
    99   95  109 1   
   100   97   98 1   
   101   97   99 1   
   102   97  102 1   
   103   98  103 1   
   104   98  104 1   
   105   98  105 1   
   106   99  106 1   
   107   99  107 1   
   108   99  108 1   
   109  109  110 1   
   110  109  117 1   
   111  110  111 1   
   112  110  113 1   
   113  110  118 1   
   114  111  112 2   
   115  111  123 1   
   116  113  114 1   
   117  113  119 1   
   118  113  120 1   
   119  114  115 1   
   120  114  116 2   
   121  115  121 1   
   122  115  122 1   
   123  123  124 1   
   124  123  135 1   
   125  124  125 1   
   126  124  127 1   
   127  124  136 1   
   128  125  126 2   
   129  125  144 1   
   130  127  128 1   
   131  127  137 1   
   132  127  138 1   
   133  128  129 ar  
   134  128  130 ar  
   135  129  131 ar  
   136  129  139 1   
   137  130  132 ar  
   138  130  140 1   
   139  131  133 ar  
   140  131  141 1   
   141  132  133 ar  
   142  132  142 1   
   143  133  134 1   
   144  134  143 1   
   145  144  145 1   
   146  144  153 1   
   147  145  146 1   
   148  145  148 1   
   149  145  154 1   
   150  146  147 2   
   151  146  159 1   
   152  148  149 1   
   153  148  155 1   
   154  148  156 1   
   155  149  150 1   
   156  149  157 1   
   157  149  158 1   
   158  150  151 1   
   159  150  152 1   
   160  159  160 1   
   161  159  168 1   
   162  160  161 1   
   163  160  163 1   
   164  160  169 1   
   165  161  162 2   
   166  161  174 1   
   167  163  164 1   
   168  163  170 1   
   169  163  171 1   
   170  164  165 1   
   171  164  172 1   
   172  164  173 1   
   173  165  166 1   
   174  165  167 1   
   175  174  175 1   
   176  174  179 1   
   177  175  176 1   
   178  175  177 1   
   179  175  178 1   
   180  181  182 1   
   181  181  183 1   
   182  184  185 1   
   183  184  186 1   
   184  187  188 1   
   185  187  189 1   
   186  190  191 1   
   187  190  192 1   
   188  193  194 1   
   189  193  195 1   
   190  196  197 1   
   191  196  198 1   
@<TRIPOS>SUBSTRUCTURE
     1 MOL         1 TEMP              0 ****  ****    0 ROOT
