@<TRIPOS>MOLECULE
MOL
  181   177     1     0     0
SMALL
resp


@<TRIPOS>ATOM
      1 C1          1.6540    6.2240   -1.8620 c3        1 MOL     -0.353300
      2 C2          3.0540    6.0890   -1.3690 c         1 MOL      0.728228
      3 O1          3.3150    6.6310   -0.2940 o         1 MOL     -0.601619
      4 H1          1.1240    6.9590   -1.2560 hc        1 MOL      0.081478
      5 H2          1.6640    6.5520   -2.9020 hc        1 MOL      0.081478
      6 H3          1.1480    5.2610   -1.7890 hc        1 MOL      0.081478
      7 N1          4.0100    5.4160   -2.0460 n         1 MOL     -0.614684
      8 C3          5.3910    5.3930   -1.5470 c3        1 MOL      0.183410
      9 C4          5.6740    4.1370   -0.6320 c         1 MOL      0.463886
     10 O2          5.6020    2.9760   -1.0580 o         1 MOL     -0.529556
     11 C5          6.3590    5.4700   -2.6940 c3        1 MOL     -0.279534
     12 C6          7.8490    5.3380   -2.2770 c         1 MOL      0.782537
     13 O3          8.5850    4.8870   -3.1730 o         1 MOL     -0.744558
     14 O4          8.2520    5.7560   -1.1770 o         1 MOL     -0.744558
     15 H4          3.7750    4.9020   -2.8860 hn        1 MOL      0.317450
     16 H5          5.5060    6.3310   -0.9920 h1        1 MOL      0.055929
     17 H6          6.2650    6.4280   -3.2030 hc        1 MOL      0.036568
     18 H7          5.9970    4.7330   -3.4130 hc        1 MOL      0.036568
     19 N2          5.9050    4.3640    0.6450 n         1 MOL     -0.365126
     20 C7          5.7770    3.4290    1.7610 c3        1 MOL      0.213087
     21 C8          4.2390    3.2310    2.1250 c         1 MOL      0.500252
     22 O5          3.3240    3.8540    1.6530 o         1 MOL     -0.536027
     23 C9          6.4770    4.1740    2.9040 c3        1 MOL     -0.484293
     24 H8          6.0300    5.3260    0.9040 hn        1 MOL      0.242112
     25 H9          6.2500    2.4890    1.4780 h1        1 MOL      0.112331
     26 H10         6.6170    3.5210    3.7640 hc        1 MOL      0.133077
     27 H11         7.5000    4.4270    2.6330 hc        1 MOL      0.133077
     28 H12         5.8800    5.0320    3.2090 hc        1 MOL      0.133077
     29 N3          3.8060    2.1980    2.8830 n         1 MOL     -0.361998
     30 C10         4.6440    1.1170    3.3500 c3        1 MOL     -0.017031
     31 C11         5.0470    0.1550    2.2150 c         1 MOL      0.446490
     32 O6          4.4100    0.1980    1.1920 o         1 MOL     -0.438973
     33 C12         3.9970    0.4100    4.5390 c3        1 MOL     -0.049448
     34 C13         2.4900    0.0850    4.4940 c         1 MOL      0.579160
     35 O7          1.9720   -0.4520    5.5030 o         1 MOL     -0.656804
     36 O8          1.7990   -0.0330    3.4190 o         1 MOL     -0.656804
     37 H13         2.8140    2.1390    3.0590 hn        1 MOL      0.210639
     38 H14         5.5920    1.5180    3.7080 h1        1 MOL      0.020975
     39 H15         4.1610    1.0150    5.4320 hc        1 MOL      0.025060
     40 H16         4.5840   -0.5010    4.6140 hc        1 MOL      0.025060
     41 N4          6.0630   -0.6800    2.4860 n         1 MOL     -0.464374
     42 C14         6.6220   -1.6240    1.5390 c3        1 MOL      0.118576
     43 C15         7.8960   -1.1780    0.7650 c         1 MOL      0.444851
     44 O9          8.5160   -0.0870    1.0760 o         1 MOL     -0.510172
     45 H17         6.6380   -0.4600    3.2880 hn        1 MOL      0.291846
     46 H18         5.8350   -1.8370    0.8120 h1        1 MOL      0.029519
     47 H19         6.9010   -2.5660    2.0240 h1        1 MOL      0.029519
     48 N5          8.2820   -1.9190   -0.3090 n         1 MOL     -0.500225
     49 C16         7.5970   -3.0810   -0.9160 c3        1 MOL      0.227775
     50 C17         6.5040   -2.5280   -1.8270 c         1 MOL      0.583104
     51 O10         6.7740   -1.7810   -2.7800 o         1 MOL     -0.539601
     52 C18         8.6370   -3.9120   -1.6210 c3        1 MOL     -0.405098
     53 C19         8.2570   -5.3340   -1.9600 c         1 MOL      0.770248
     54 N6          8.9180   -5.9840   -2.8540 n         1 MOL     -0.834503
     55 O11         7.2380   -5.8520   -1.4900 o         1 MOL     -0.603083
     56 H20         9.1160   -1.5970   -0.7790 hn        1 MOL      0.325451
     57 H21         7.1240   -3.6510   -0.1190 h1        1 MOL      0.011350
     58 H22         9.4820   -4.0100   -0.9520 hc        1 MOL      0.101595
     59 H23         8.8350   -3.4340   -2.5830 hc        1 MOL      0.101595
     60 H24         9.7120   -5.5410   -3.2830 hn        1 MOL      0.384105
     61 H25         8.4920   -6.8490   -3.1710 hn        1 MOL      0.384105
     62 N7          5.2790   -2.8880   -1.5500 n         1 MOL     -0.270359
     63 C20         4.0820   -2.5020   -2.3450 c3        1 MOL     -0.256066
     64 C21         2.9570   -3.6320   -2.2640 c         1 MOL      0.497351
     65 O12         3.0270   -4.5490   -3.0840 o         1 MOL     -0.521173
     66 H26         5.2310   -3.5480   -0.7860 hn        1 MOL      0.229170
     67 H27         4.3450   -2.4400   -3.3990 h1        1 MOL      0.121798
     68 H28         3.7720   -1.5310   -1.9580 h1        1 MOL      0.121798
     69 N8          1.9950   -3.5270   -1.3410 n         1 MOL     -0.153179
     70 C22         0.8200   -4.3610   -1.2030 c3        1 MOL     -0.484492
     71 C23        -0.3990   -3.5300   -0.7700 c         1 MOL      0.623303
     72 O13        -0.2780   -2.6470    0.0520 o         1 MOL     -0.582492
     73 C24         1.0120   -5.4320   -0.1090 c3        1 MOL      0.593792
     74 C25         1.6600   -6.7150   -0.5850 c3        1 MOL     -0.652329
     75 O14         1.6770   -5.0230    1.0720 oh        1 MOL     -0.603470
     76 H29         2.1250   -2.7880   -0.6610 hn        1 MOL      0.245526
     77 H30         0.6260   -4.9610   -2.0960 h1        1 MOL      0.172027
     78 H31        -0.0010   -5.7550    0.1160 h1        1 MOL     -0.004623
     79 H32         1.0730   -5.3990    1.7140 ho        1 MOL      0.396660
     80 H33         2.7420   -6.6110   -0.6160 hc        1 MOL      0.158778
     81 H34         1.6130   -7.5200    0.1430 hc        1 MOL      0.158778
     82 H35         1.3960   -6.8570   -1.6450 hc        1 MOL      0.158778
     83 N9         -1.6280   -3.8370   -1.3050 n         1 MOL     -0.234172
     84 C26        -2.8470   -3.0300   -1.2270 c3        1 MOL     -0.408891
     85 C27        -3.4340   -3.3130    0.1350 c         1 MOL      0.354948
     86 O15        -3.5870   -4.4890    0.4300 o         1 MOL     -0.545586
     87 C28        -3.8000   -3.3180   -2.4080 c3        1 MOL      0.309942
     88 C29        -5.0030   -2.3000   -2.3750 c3        1 MOL      0.337967
     89 C30        -3.0750   -3.2570   -3.7510 c3        1 MOL     -0.381978
     90 C31        -6.1830   -2.6610   -3.1810 c3        1 MOL     -0.326847
     91 H36        -1.6430   -4.4960   -2.0700 hn        1 MOL      0.208757
     92 H37        -2.5230   -1.9920   -1.1580 h1        1 MOL      0.204780
     93 H38        -4.2930   -4.2870   -2.3060 hc        1 MOL     -0.002099
     94 H39        -4.5690   -1.3350   -2.6270 hc        1 MOL     -0.095484
     95 H40        -5.2970   -2.3010   -1.3180 hc        1 MOL     -0.095484
     96 H41        -2.4520   -2.3750   -3.9250 hc        1 MOL      0.080574
     97 H42        -2.4510   -4.1410   -3.8650 hc        1 MOL      0.080574
     98 H43        -3.8150   -3.4700   -4.5200 hc        1 MOL      0.080574
     99 H44        -6.9180   -1.8640   -3.0740 hc        1 MOL      0.050807
    100 H45        -5.8930   -2.7730   -4.2230 hc        1 MOL      0.050807
    101 H46        -6.4950   -3.5830   -2.6850 hc        1 MOL      0.050807
    102 N10        -3.5270   -2.3050    0.9670 n         1 MOL      0.268538
    103 C32        -4.2070   -2.3420    2.2690 c3        1 MOL     -0.034101
    104 C33        -5.4990   -1.5940    2.2930 c         1 MOL      0.187122
    105 O16        -6.4420   -1.9310    3.0360 o         1 MOL     -0.513531
    106 C34        -3.1960   -1.9440    3.3860 c3        1 MOL      0.063517
    107 C35        -2.0210   -2.7910    3.4120 c         1 MOL      0.593179
    108 O17        -2.0600   -3.9650    3.7800 o         1 MOL     -0.681064
    109 O18        -0.9440   -2.3110    2.8560 o         1 MOL     -0.681064
    110 H47        -3.1930   -1.3780    0.7400 hn        1 MOL     -0.025650
    111 H48        -4.4880   -3.3670    2.5280 h1        1 MOL      0.082830
    112 H49        -3.6120   -1.9900    4.3960 hc        1 MOL     -0.011695
    113 H50        -2.9740   -0.8830    3.2420 hc        1 MOL     -0.011695
    114 N11        -5.6810   -0.6430    1.3990 n         1 MOL     -0.165891
    115 C36        -6.9740    0.0320    1.1560 c3        1 MOL      0.209427
    116 C37        -6.8560    1.5340    0.6660 c         1 MOL      0.285530
    117 O19        -7.4440    1.9230   -0.3160 o         1 MOL     -0.475331
    118 C38        -7.8040   -0.8710    0.1860 c3        1 MOL     -0.138135
    119 C39        -9.2590   -0.5600    0.0620 ca        1 MOL     -0.009272
    120 C40        -9.8330   -0.6480   -1.2140 ca        1 MOL     -0.038446
    121 C41       -10.0290   -0.1600    1.1460 ca        1 MOL     -0.038446
    122 C42       -11.1740   -0.3890   -1.4800 ca        1 MOL     -0.221757
    123 C43       -11.4390   -0.0020    0.9160 ca        1 MOL     -0.221757
    124 C44       -11.9660   -0.0330   -0.4130 ca        1 MOL     -0.027104
    125 H51        -4.9310   -0.3690    0.7760 hn        1 MOL      0.160735
    126 H52        -7.5090    0.0190    2.1020 h1        1 MOL      0.034336
    127 H53        -7.7690   -1.9190    0.4700 hc        1 MOL      0.094533
    128 H54        -7.2760   -0.8540   -0.7670 hc        1 MOL      0.094533
    129 H55        -9.1240   -0.9110   -1.9870 ha        1 MOL      0.078575
    130 H56        -9.5780   -0.1010    2.1280 ha        1 MOL      0.078575
    131 H57       -11.5410   -0.4570   -2.4960 ha        1 MOL      0.122590
    132 H58       -12.0950    0.3910    1.6830 ha        1 MOL      0.122590
    133 H59       -13.0320    0.1790   -0.4710 ha        1 MOL      0.071420
    134 N12        -5.9580    2.3310    1.2780 n         1 MOL     -0.060738
    135 C45        -5.6580    3.7230    0.8130 c3        1 MOL     -0.066433
    136 C46        -5.1490    3.8500   -0.6360 c         1 MOL      0.313528
    137 O20        -5.3710    4.8390   -1.2600 o         1 MOL     -0.498098
    138 C47        -4.5350    4.1690    1.8430 c3        1 MOL      0.110660
    139 C48        -4.7740    3.3540    3.0760 c3        1 MOL     -0.046059
    140 C49        -5.1680    2.0610    2.4470 c3        1 MOL     -0.084576
    141 H60        -6.5320    4.2730    1.1390 h1        1 MOL      0.091927
    142 H61        -3.6150    3.7840    1.3930 hc        1 MOL     -0.015508
    143 H62        -4.4850    5.2310    2.0500 hc        1 MOL     -0.015508
    144 H63        -3.8630    3.3510    3.6670 hc        1 MOL      0.022470
    145 H64        -5.6060    3.7520    3.6560 hc        1 MOL      0.022470
    146 H65        -4.2990    1.4250    2.2510 h1        1 MOL      0.059613
    147 H66        -5.7590    1.6320    3.2630 h1        1 MOL      0.059613
    148 N13        -4.5590    2.8190   -1.1980 n         1 MOL     -0.008816
    149 C50        -3.9500    2.8290   -2.5390 c3        1 MOL     -0.300723
    150 C51        -5.0760    2.9340   -3.6310 c         1 MOL      0.553450
    151 O21        -4.9870    3.7610   -4.5120 o         1 MOL     -0.548494
    152 C52        -2.9980    1.6310   -2.8060 c3        1 MOL      0.105409
    153 C53        -1.9880    1.3080   -1.6140 c3        1 MOL     -0.248539
    154 C54        -2.6450    0.4170   -0.4710 c         1 MOL      0.669302
    155 O22        -2.0000    0.0760    0.5140 o         1 MOL     -0.665589
    156 O23        -3.8450    0.1120   -0.5730 o         1 MOL     -0.665589
    157 H67        -4.6000    1.9970   -0.6130 hn        1 MOL      0.177406
    158 H68        -3.3210    3.7200   -2.5710 h1        1 MOL      0.143466
    159 H69        -2.3890    1.9600   -3.6480 hc        1 MOL      0.009681
    160 H70        -3.5510    0.7550   -3.1460 hc        1 MOL      0.009681
    161 H71        -1.5500    2.1920   -1.1550 hc        1 MOL      0.054312
    162 H72        -1.1480    0.6950   -1.9150 hc        1 MOL      0.054312
    163 N14        -6.0120    2.0100   -3.5490 n         1 MOL     -0.221962
    164 C55        -7.0870    1.8790   -4.5820 c3        1 MOL     -0.165182
    165 H73        -7.0080    0.9060   -5.0670 h1        1 MOL      0.085941
    166 H74        -8.0630    1.9700   -4.1040 h1        1 MOL      0.085941
    167 H75        -6.9720    2.6660   -5.3280 h1        1 MOL      0.085941
    168 H76        -5.9000    1.3350   -2.8190 hn        1 MOL      0.218583
    169 Ca1         0.2620   -0.5060    1.4850 Ca        1 MOL      1.683833
    170 O24        -1.1130    1.1740    3.2790 oh        1 MOL     -0.860166
    171 O25         2.7400   -1.9110    1.2500 oh        1 MOL     -0.860166
    172 H77        -0.8560    2.0640    3.0270 ho        1 MOL      0.422074
    173 H78         3.1230   -2.3350    2.0200 ho        1 MOL      0.422074
    174 H79        -1.7460    1.2980    3.9820 ho        1 MOL      0.422074
    175 H80         3.4050   -1.2930    0.9560 ho        1 MOL      0.422074
    176 O26         1.3460   -0.1670   -0.8180 oh        1 MOL     -0.860166
    177 H81         2.2040    0.2540   -0.9140 ho        1 MOL      0.422074
    178 H82         0.9280   -0.0470   -1.6760 ho        1 MOL      0.422074
    179 O27         0.9250    2.1880    1.2540 oh        1 MOL     -0.860166
    180 H83         0.3510    2.9250    1.4740 ho        1 MOL      0.422074
    181 H84         1.7770    2.5840    1.0640 ho        1 MOL      0.422074
@<TRIPOS>BOND
     1    1    2 1   
     2    1    4 1   
     3    1    5 1   
     4    1    6 1   
     5    2    3 2   
     6    2    7 1   
     7    7    8 1   
     8    7   15 1   
     9    8    9 1   
    10    8   11 1   
    11    8   16 1   
    12    9   10 2   
    13    9   19 1   
    14   11   12 1   
    15   11   17 1   
    16   11   18 1   
    17   12   13 1   
    18   12   14 1   
    19   19   20 1   
    20   19   24 1   
    21   20   21 1   
    22   20   23 1   
    23   20   25 1   
    24   21   22 2   
    25   21   29 1   
    26   23   26 1   
    27   23   27 1   
    28   23   28 1   
    29   29   30 1   
    30   29   37 1   
    31   30   31 1   
    32   30   33 1   
    33   30   38 1   
    34   31   32 2   
    35   31   41 1   
    36   33   34 1   
    37   33   39 1   
    38   33   40 1   
    39   34   35 1   
    40   34   36 1   
    41   41   42 1   
    42   41   45 1   
    43   42   43 1   
    44   42   46 1   
    45   42   47 1   
    46   43   44 2   
    47   43   48 1   
    48   48   49 1   
    49   48   56 1   
    50   49   50 1   
    51   49   52 1   
    52   49   57 1   
    53   50   51 2   
    54   50   62 1   
    55   52   53 1   
    56   52   58 1   
    57   52   59 1   
    58   53   54 1   
    59   53   55 2   
    60   54   60 1   
    61   54   61 1   
    62   62   63 1   
    63   62   66 1   
    64   63   64 1   
    65   63   67 1   
    66   63   68 1   
    67   64   65 2   
    68   64   69 1   
    69   69   70 1   
    70   69   76 1   
    71   70   71 1   
    72   70   73 1   
    73   70   77 1   
    74   71   72 2   
    75   71   83 1   
    76   73   74 1   
    77   73   75 1   
    78   73   78 1   
    79   74   80 1   
    80   74   81 1   
    81   74   82 1   
    82   75   79 1   
    83   83   84 1   
    84   83   91 1   
    85   84   85 1   
    86   84   87 1   
    87   84   92 1   
    88   85   86 2   
    89   85  102 1   
    90   87   88 1   
    91   87   89 1   
    92   87   93 1   
    93   88   90 1   
    94   88   94 1   
    95   88   95 1   
    96   89   96 1   
    97   89   97 1   
    98   89   98 1   
    99   90   99 1   
   100   90  100 1   
   101   90  101 1   
   102  102  103 1   
   103  102  110 1   
   104  103  104 1   
   105  103  106 1   
   106  103  111 1   
   107  104  105 2   
   108  104  114 1   
   109  106  107 1   
   110  106  112 1   
   111  106  113 1   
   112  107  108 1   
   113  107  109 1   
   114  114  115 1   
   115  114  125 1   
   116  115  116 1   
   117  115  118 1   
   118  115  126 1   
   119  116  117 2   
   120  116  134 1   
   121  118  119 1   
   122  118  127 1   
   123  118  128 1   
   124  119  120 ar  
   125  119  121 ar  
   126  120  122 ar  
   127  120  129 1   
   128  121  123 ar  
   129  121  130 1   
   130  122  124 ar  
   131  122  131 1   
   132  123  124 ar  
   133  123  132 1   
   134  124  133 1   
   135  134  135 1   
   136  134  140 1   
   137  135  136 1   
   138  135  138 1   
   139  135  141 1   
   140  136  137 2   
   141  136  148 1   
   142  138  139 1   
   143  138  142 1   
   144  138  143 1   
   145  139  140 1   
   146  139  144 1   
   147  139  145 1   
   148  140  146 1   
   149  140  147 1   
   150  148  149 1   
   151  148  157 1   
   152  149  150 1   
   153  149  152 1   
   154  149  158 1   
   155  150  151 2   
   156  150  163 1   
   157  152  153 1   
   158  152  159 1   
   159  152  160 1   
   160  153  154 1   
   161  153  161 1   
   162  153  162 1   
   163  154  155 1   
   164  154  156 1   
   165  163  164 1   
   166  163  168 1   
   167  164  165 1   
   168  164  166 1   
   169  164  167 1   
   170  170  172 1   
   171  170  174 1   
   172  171  173 1   
   173  171  175 1   
   174  176  177 1   
   175  176  178 1   
   176  179  180 1   
   177  179  181 1   
@<TRIPOS>SUBSTRUCTURE
     1 MOL         1 TEMP              0 ****  ****    0 ROOT
