@<TRIPOS>MOLECULE
MOL
  179   176     1     0     0
SMALL
resp


@<TRIPOS>ATOM
      1 C1          0.7960   -5.1350    6.0770 c3        1 MOL     -0.331759
      2 C2          0.5800   -4.4680    4.7040 c         1 MOL      0.635514
      3 O1         -0.4870   -4.4610    4.0440 o         1 MOL     -0.574734
      4 H1          1.4000   -6.0330    5.9520 hc        1 MOL      0.096152
      5 H2          1.3100   -4.4410    6.7420 hc        1 MOL      0.096152
      6 H3         -0.1690   -5.4030    6.5060 hc        1 MOL      0.096152
      7 N1          1.6620   -3.8040    4.2830 n         1 MOL     -0.582809
      8 C3          1.7750   -3.2920    2.9010 c3        1 MOL      0.028209
      9 C4          1.8950   -4.4280    1.8860 c         1 MOL      0.622928
     10 O2          2.9990   -4.8310    1.6760 o         1 MOL     -0.511985
     11 C5          2.8910   -2.2000    2.9420 c3        1 MOL     -0.418204
     12 C6          3.0800   -1.6270    1.5360 c         1 MOL      0.880470
     13 O3          3.8180   -0.6710    1.4380 o         1 MOL     -0.833247
     14 O4          2.3120   -1.9790    0.5370 o         1 MOL     -0.833247
     15 H4          2.5120   -3.7240    4.8270 hn        1 MOL      0.323713
     16 H5          0.8560   -2.7510    2.6830 h1        1 MOL      0.184791
     17 H6          3.8270   -2.7030    3.2020 hc        1 MOL      0.158285
     18 H7          2.6570   -1.4400    3.6840 hc        1 MOL      0.158285
     19 N2          0.8560   -4.8540    1.1710 n         1 MOL     -0.427818
     20 C7          0.8410   -5.8450    0.0090 c3        1 MOL     -0.082568
     21 C8          1.9600   -5.6970   -1.1410 c         1 MOL      0.524563
     22 O5          2.1810   -6.6970   -1.8490 o         1 MOL     -0.588675
     23 C9         -0.5840   -5.8170   -0.6610 c3        1 MOL      0.071184
     24 C10        -0.9320   -7.0260   -1.5430 c3        1 MOL     -0.047852
     25 C11        -2.4100   -6.9940   -2.0390 c3        1 MOL     -0.182821
     26 C12        -2.7170   -5.8830   -2.9570 c3        1 MOL      0.274818
     27 N3         -3.9060   -6.1410   -3.8970 n4        1 MOL     -0.430433
     28 H8         -0.0220   -4.4000    1.3430 hn        1 MOL      0.259675
     29 H9          0.8960   -6.8820    0.3230 h1        1 MOL      0.108231
     30 H10        -0.7240   -4.8770   -1.1990 hc        1 MOL      0.022198
     31 H11        -1.3350   -5.7840    0.1270 hc        1 MOL      0.022198
     32 H12        -0.7660   -7.9310   -0.9530 hc        1 MOL      0.052615
     33 H13        -0.2720   -7.0100   -2.4180 hc        1 MOL      0.052615
     34 H14        -3.0750   -6.8440   -1.2010 hc        1 MOL      0.066282
     35 H15        -2.5310   -7.9370   -2.5750 hc        1 MOL      0.066282
     36 H16        -1.8380   -5.7130   -3.5780 hx        1 MOL      0.020222
     37 H17        -2.8900   -4.9450   -2.4210 hx        1 MOL      0.020222
     38 H18        -3.9440   -5.4400   -4.6320 hn        1 MOL      0.298992
     39 H19        -3.7940   -7.0470   -4.3320 hn        1 MOL      0.298992
     40 H20        -4.8070   -6.1140   -3.4370 hn        1 MOL      0.298992
     41 N4          2.6890   -4.6300   -1.2040 n         1 MOL     -0.233070
     42 C13         3.8450   -4.4880   -2.0250 c3        1 MOL      0.040233
     43 C14         5.1590   -4.1940   -1.2780 c         1 MOL      0.374703
     44 O6          6.2030   -4.2620   -1.9710 o         1 MOL     -0.553170
     45 C15         3.5680   -3.5020   -3.0940 c3        1 MOL     -0.538804
     46 C16         3.3100   -2.0910   -2.5130 c         1 MOL      0.872399
     47 O7          4.0840   -1.4510   -1.8350 o         1 MOL     -0.809903
     48 O8          2.1570   -1.5980   -2.6450 o         1 MOL     -0.809903
     49 H21         2.5480   -3.9080   -0.5040 hn        1 MOL      0.220772
     50 H22         4.0370   -5.4670   -2.4740 h1        1 MOL      0.152023
     51 H23         2.7500   -3.8250   -3.7310 hc        1 MOL      0.158057
     52 H24         4.3710   -3.3740   -3.8240 hc        1 MOL      0.158057
     53 N5          5.2150   -4.0170    0.0620 n         1 MOL     -0.054372
     54 C17         6.4440   -3.6800    0.8550 c3        1 MOL     -0.019463
     55 C18         7.1760   -2.3470    0.5170 c         1 MOL      0.481343
     56 O9          8.3680   -2.2240    0.8800 o         1 MOL     -0.563406
     57 H25         4.2840   -4.0600    0.4500 hn        1 MOL      0.007945
     58 H26         7.1540   -4.5030    0.7770 h1        1 MOL      0.060849
     59 H27         6.1530   -3.7170    1.9040 h1        1 MOL      0.060849
     60 N6          6.5870   -1.3980   -0.1650 n         1 MOL     -0.342396
     61 C19         7.2820   -0.1250   -0.5560 c3        1 MOL      0.117163
     62 C20         6.3440    1.0550   -0.8130 c         1 MOL      0.367197
     63 O10         5.0700    1.0100   -0.6920 o         1 MOL     -0.373852
     64 C21         8.0250   -0.4740   -1.8650 c3        1 MOL     -0.323256
     65 C22         7.3530   -0.4420   -3.2800 c         1 MOL      0.708736
     66 N7          6.7680   -1.5050   -3.7450 n         1 MOL     -0.745980
     67 O11         7.5490    0.4820   -4.0380 o         1 MOL     -0.617040
     68 H28         5.5850   -1.4840   -0.3270 hn        1 MOL      0.384257
     69 H29         8.0460    0.1880    0.1470 h1        1 MOL      0.087428
     70 H30         8.5370   -1.4450   -1.8600 hc        1 MOL      0.100619
     71 H31         8.7980    0.2830   -1.9580 hc        1 MOL      0.100619
     72 H32         6.6780   -2.2950   -3.1210 hn        1 MOL      0.351826
     73 H33         6.5930   -1.5400   -4.7420 hn        1 MOL      0.351826
     74 N8          6.8820    2.2310   -1.0460 n         1 MOL     -0.441715
     75 C23         6.0480    3.4510   -1.2930 c3        1 MOL      0.110561
     76 C24         5.0640    4.0210   -0.1420 c         1 MOL      0.441101
     77 O12         5.4120    3.8780    1.0340 o         1 MOL     -0.475024
     78 H34         7.8900    2.2490   -1.1320 hn        1 MOL      0.328908
     79 H35         5.3940    3.1550   -2.1120 h1        1 MOL      0.020831
     80 H36         6.6880    4.2700   -1.6400 h1        1 MOL      0.020831
     81 N9          3.9610    4.6810   -0.4720 n         1 MOL     -0.382504
     82 C25         2.8830    4.9880    0.4950 c3        1 MOL      0.056747
     83 C26         2.1490    3.6310    0.9380 c         1 MOL      0.628874
     84 O13         2.4390    2.5750    0.3540 o         1 MOL     -0.592755
     85 C27         1.9190    6.0130   -0.2180 c3        1 MOL     -0.231392
     86 C28         2.5250    7.3840   -0.5860 ca        1 MOL      0.090753
     87 C29         2.8980    8.2720    0.4210 ca        1 MOL     -0.153314
     88 C30         2.5700    7.7480   -1.9340 ca        1 MOL     -0.153314
     89 C31         3.3330    9.5760    0.1450 ca        1 MOL     -0.248550
     90 C32         3.0270    9.0530   -2.3010 ca        1 MOL     -0.248550
     91 C33         3.4290    9.9260   -1.2070 ca        1 MOL      0.315273
     92 O14         3.8920   11.1660   -1.5460 oh        1 MOL     -0.477765
     93 H37         3.8060    4.8460   -1.4530 hn        1 MOL      0.234490
     94 H38         3.2860    5.5280    1.3480 h1        1 MOL      0.086096
     95 H39         1.1250    6.3050    0.4660 hc        1 MOL      0.073131
     96 H40         1.5690    5.5040   -1.1180 hc        1 MOL      0.073131
     97 H41         2.7280    8.0070    1.4520 ha        1 MOL      0.133379
     98 H42         2.1840    7.0990   -2.7170 ha        1 MOL      0.133379
     99 H43         3.3790   10.3000    0.9430 ha        1 MOL      0.166565
    100 H44         2.9820    9.4540   -3.2970 ha        1 MOL      0.166565
    101 H45         4.1820   11.6870   -0.7880 ho        1 MOL      0.372084
    102 N10         1.1600    3.7610    1.9090 n         1 MOL     -0.714096
    103 C34         0.4070    2.7810    2.7000 c3        1 MOL     -0.014769
    104 C35         0.0440    1.4990    1.9440 c         1 MOL      0.788928
    105 O15         0.9000    0.7660    1.5740 o         1 MOL     -0.622741
    106 C36         1.0850    2.5010    4.0860 c3        1 MOL      0.140625
    107 C37         2.5610    2.0170    3.8780 c3        1 MOL      0.009857
    108 C38         0.2030    1.5310    4.7990 c3        1 MOL     -0.461314
    109 C39         3.1800    1.5780    5.2110 c3        1 MOL     -0.149456
    110 H46         0.9060    4.7340    2.0390 hn        1 MOL      0.367119
    111 H47        -0.5400    3.3100    2.8670 h1        1 MOL      0.076479
    112 H48         1.0890    3.3770    4.7340 hc        1 MOL      0.038508
    113 H49         3.1000    2.8720    3.4690 hc        1 MOL      0.057845
    114 H50         2.6250    1.2290    3.1320 hc        1 MOL      0.057845
    115 H51         0.1950    0.5130    4.4200 hc        1 MOL      0.112992
    116 H52         0.4250    1.6130    5.8630 hc        1 MOL      0.112992
    117 H53        -0.7350    2.0750    4.8420 hc        1 MOL      0.112992
    118 H54         2.9210    2.4200    5.8590 hc        1 MOL      0.040949
    119 H55         2.7840    0.6110    5.5110 hc        1 MOL      0.040949
    120 H56         4.2760    1.5040    5.2380 hc        1 MOL      0.040949
    121 N11        -1.2250    1.0870    1.8670 n         1 MOL     -0.611822
    122 C40        -1.7420   -0.0610    1.1600 c3        1 MOL     -0.031647
    123 C41        -3.1910   -0.1210    0.7790 c         1 MOL      0.716909
    124 O16        -3.5190   -0.8300   -0.1540 o         1 MOL     -0.565746
    125 C42        -1.4140   -1.4250    1.9510 c3        1 MOL      0.208282
    126 O17        -1.3310   -2.6050    1.2260 oh        1 MOL     -0.526241
    127 H57        -1.8630    1.5210    2.5150 hn        1 MOL      0.263034
    128 H58        -1.1840   -0.1100    0.2300 h1        1 MOL      0.089995
    129 H59        -2.1700   -1.6110    2.7030 h1        1 MOL      0.047101
    130 H60        -0.5270   -1.2770    2.5600 h1        1 MOL      0.047101
    131 H61        -0.7140   -2.3140    0.5470 ho        1 MOL      0.326482
    132 N12        -4.1130    0.6660    1.3350 n         1 MOL     -0.734759
    133 C43        -5.3940    0.9640    0.6550 c3        1 MOL      0.302131
    134 C44        -5.3580    1.8760   -0.6490 c         1 MOL      0.546573
    135 O18        -4.3940    2.5700   -0.8660 o         1 MOL     -0.564202
    136 C45        -6.2850    1.6350    1.7000 c3        1 MOL     -0.277467
    137 H62        -3.8410    1.2790    2.0980 hn        1 MOL      0.353601
    138 H63        -5.8050    0.0320    0.2730 h1        1 MOL      0.063828
    139 H64        -5.7930    2.5640    2.0040 hc        1 MOL      0.084663
    140 H65        -7.2910    1.8400    1.3310 hc        1 MOL      0.084663
    141 H66        -6.4750    1.0050    2.5670 hc        1 MOL      0.084663
    142 N13        -6.3150    1.7410   -1.5620 n         1 MOL     -0.553018
    143 C46        -7.5770    0.9530   -1.4400 c3        1 MOL      0.289416
    144 C47        -8.7720    1.7810   -2.0400 c         1 MOL      0.397515
    145 O19        -8.6560    2.7100   -2.8430 o         1 MOL     -0.517209
    146 C48        -7.4010   -0.3750   -2.1120 c3        1 MOL     -0.304557
    147 H67        -6.2710    2.4000   -2.3200 hn        1 MOL      0.319620
    148 H68        -7.7920    0.7220   -0.3920 h1        1 MOL     -0.019878
    149 H69        -6.4800   -0.9030   -1.8690 hc        1 MOL      0.090213
    150 H70        -8.3040   -0.9780   -1.9840 hc        1 MOL      0.090213
    151 H71        -7.2970   -0.1430   -3.1770 hc        1 MOL      0.090213
    152 N14       -10.0360    1.5780   -1.5590 n         1 MOL     -0.378261
    153 C49       -10.3940    0.7900   -0.3680 c3        1 MOL     -0.149317
    154 C50       -10.1270    1.5530    1.0200 c         1 MOL      0.335770
    155 O20        -9.8690    0.9300    2.0380 o         1 MOL     -0.486906
    156 C51       -11.9390    0.4560   -0.3880 c3        1 MOL     -0.078795
    157 C52       -12.1720   -0.7550   -1.2760 c3        1 MOL     -0.091082
    158 C53       -13.6530   -1.3030   -1.2430 c         1 MOL      0.641780
    159 O21       -14.6020   -0.4850   -1.5610 o         1 MOL     -0.653334
    160 O22       -13.8320   -2.4700   -0.9270 o         1 MOL     -0.653334
    161 H72       -10.7520    2.1380   -1.9900 hn        1 MOL      0.337539
    162 H73        -9.8900   -0.1760   -0.4140 h1        1 MOL      0.162441
    163 H74       -12.7220    1.1340   -0.7270 hc        1 MOL      0.069018
    164 H75       -12.1850    0.1390    0.6220 hc        1 MOL      0.069018
    165 H76       -11.5530   -1.5570   -0.8860 hc        1 MOL     -0.004073
    166 H77       -11.9400   -0.5240   -2.3090 hc        1 MOL     -0.004073
    167 N15       -10.0500    2.8670    0.9630 n         1 MOL     -0.200155
    168 C54        -9.6090    3.7860    2.0200 c3        1 MOL     -0.095727
    169 H78       -10.3670    4.5550    2.1720 h1        1 MOL      0.072537
    170 H79        -9.4620    3.2310    2.9460 h1        1 MOL      0.072537
    171 H80        -8.6700    4.2560    1.7240 h1        1 MOL      0.072537
    172 H81       -10.3520    3.1920    0.0550 hn        1 MOL      0.211216
    173 Ca1         2.4840    0.2650   -0.7210 Ca        1 MOL      1.796562
    174 O23         0.2960    1.4810   -1.4940 oh        1 MOL     -0.877003
    175 H82        -0.1790    1.4090   -2.3160 ho        1 MOL      0.442276
    176 H83        -0.1160    2.2150   -1.0430 ho        1 MOL      0.442276
    177 O24         3.1990    1.7670   -2.7980 oh        1 MOL     -0.877003
    178 H84         2.8680    2.6480   -2.9280 ho        1 MOL      0.442276
    179 H85         4.0050    1.7350   -3.3140 ho        1 MOL      0.442276
@<TRIPOS>BOND
     1    1    2 1   
     2    1    4 1   
     3    1    5 1   
     4    1    6 1   
     5    2    3 2   
     6    2    7 1   
     7    7    8 1   
     8    7   15 1   
     9    8    9 1   
    10    8   11 1   
    11    8   16 1   
    12    9   10 2   
    13    9   19 1   
    14   11   12 1   
    15   11   17 1   
    16   11   18 1   
    17   12   13 1   
    18   12   14 1   
    19   19   20 1   
    20   19   28 1   
    21   20   21 1   
    22   20   23 1   
    23   20   29 1   
    24   21   22 2   
    25   21   41 1   
    26   23   24 1   
    27   23   30 1   
    28   23   31 1   
    29   24   25 1   
    30   24   32 1   
    31   24   33 1   
    32   25   26 1   
    33   25   34 1   
    34   25   35 1   
    35   26   27 1   
    36   26   36 1   
    37   26   37 1   
    38   27   38 1   
    39   27   39 1   
    40   27   40 1   
    41   41   42 1   
    42   41   49 1   
    43   42   43 1   
    44   42   45 1   
    45   42   50 1   
    46   43   44 2   
    47   43   53 1   
    48   45   46 1   
    49   45   51 1   
    50   45   52 1   
    51   46   47 1   
    52   46   48 1   
    53   53   54 1   
    54   53   57 1   
    55   54   55 1   
    56   54   58 1   
    57   54   59 1   
    58   55   56 2   
    59   55   60 1   
    60   60   61 1   
    61   60   68 1   
    62   61   62 1   
    63   61   64 1   
    64   61   69 1   
    65   62   63 2   
    66   62   74 1   
    67   64   65 1   
    68   64   70 1   
    69   64   71 1   
    70   65   66 1   
    71   65   67 2   
    72   66   72 1   
    73   66   73 1   
    74   74   75 1   
    75   74   78 1   
    76   75   76 1   
    77   75   79 1   
    78   75   80 1   
    79   76   77 2   
    80   76   81 1   
    81   81   82 1   
    82   81   93 1   
    83   82   83 1   
    84   82   85 1   
    85   82   94 1   
    86   83   84 2   
    87   83  102 1   
    88   85   86 1   
    89   85   95 1   
    90   85   96 1   
    91   86   87 ar  
    92   86   88 ar  
    93   87   89 ar  
    94   87   97 1   
    95   88   90 ar  
    96   88   98 1   
    97   89   91 ar  
    98   89   99 1   
    99   90   91 ar  
   100   90  100 1   
   101   91   92 1   
   102   92  101 1   
   103  102  103 1   
   104  102  110 1   
   105  103  104 1   
   106  103  106 1   
   107  103  111 1   
   108  104  105 2   
   109  104  121 1   
   110  106  107 1   
   111  106  108 1   
   112  106  112 1   
   113  107  109 1   
   114  107  113 1   
   115  107  114 1   
   116  108  115 1   
   117  108  116 1   
   118  108  117 1   
   119  109  118 1   
   120  109  119 1   
   121  109  120 1   
   122  121  122 1   
   123  121  127 1   
   124  122  123 1   
   125  122  125 1   
   126  122  128 1   
   127  123  124 2   
   128  123  132 1   
   129  125  126 1   
   130  125  129 1   
   131  125  130 1   
   132  126  131 1   
   133  132  133 1   
   134  132  137 1   
   135  133  134 1   
   136  133  136 1   
   137  133  138 1   
   138  134  135 2   
   139  134  142 1   
   140  136  139 1   
   141  136  140 1   
   142  136  141 1   
   143  142  143 1   
   144  142  147 1   
   145  143  144 1   
   146  143  146 1   
   147  143  148 1   
   148  144  145 2   
   149  144  152 1   
   150  146  149 1   
   151  146  150 1   
   152  146  151 1   
   153  152  153 1   
   154  152  161 1   
   155  153  154 1   
   156  153  156 1   
   157  153  162 1   
   158  154  155 2   
   159  154  167 1   
   160  156  157 1   
   161  156  163 1   
   162  156  164 1   
   163  157  158 1   
   164  157  165 1   
   165  157  166 1   
   166  158  159 1   
   167  158  160 1   
   168  167  168 1   
   169  167  172 1   
   170  168  169 1   
   171  168  170 1   
   172  168  171 1   
   173  174  175 1   
   174  174  176 1   
   175  177  178 1   
   176  177  179 1   
@<TRIPOS>SUBSTRUCTURE
     1 MOL         1 TEMP              0 ****  ****    0 ROOT
