@<TRIPOS>MOLECULE
MOL
  181   177     1     0     0
SMALL
resp


@<TRIPOS>ATOM
      1 C1          5.9840   -6.0770    4.4750 c3        1 MOL     -0.420446
      2 C2          5.5940   -4.7170    3.8520 c         1 MOL      0.663445
      3 O1          4.6030   -4.0510    4.2580 o         1 MOL     -0.564407
      4 H1          5.1310   -6.4860    5.0180 hc        1 MOL      0.098523
      5 H2          6.2760   -6.7700    3.6850 hc        1 MOL      0.098523
      6 H3          6.8170   -5.9370    5.1630 hc        1 MOL      0.098523
      7 N1          6.2670   -4.3540    2.7510 n         1 MOL     -0.457809
      8 C3          7.5270   -4.9370    2.1410 c3        1 MOL      0.301195
      9 C4          7.3590   -5.3970    0.6090 c         1 MOL      0.147021
     10 O2          6.2400   -5.4680    0.0360 o         1 MOL     -0.422510
     11 C5          8.7990   -3.9840    2.4370 c3        1 MOL     -0.383665
     12 C6          8.6370   -2.5800    1.8610 c         1 MOL      0.872169
     13 O3          8.8660   -2.4820    0.6420 o         1 MOL     -0.785040
     14 O4          8.5000   -1.5860    2.5790 o         1 MOL     -0.785040
     15 H4          5.6800   -3.8370    2.1120 hn        1 MOL      0.288788
     16 H5          7.8300   -5.8270    2.6910 h1        1 MOL     -0.002182
     17 H6          9.7490   -4.3300    2.0400 hc        1 MOL      0.077569
     18 H7          8.9020   -3.8850    3.5190 hc        1 MOL      0.077569
     19 N2          8.4810   -5.5350   -0.0850 n         1 MOL     -0.081967
     20 C7          8.5260   -5.7430   -1.4920 c3        1 MOL      0.113176
     21 C8          7.7580   -4.6700   -2.3440 c         1 MOL      0.472281
     22 O5          7.4680   -4.9910   -3.5000 o         1 MOL     -0.545034
     23 C9          8.1530   -7.1800   -1.9130 c3        1 MOL     -0.266487
     24 H8          9.2840   -5.6880    0.5150 hn        1 MOL      0.167637
     25 H9          9.5880   -5.6570   -1.7330 h1        1 MOL      0.021081
     26 H10         8.2410   -7.2930   -2.9970 hc        1 MOL      0.073421
     27 H11         8.7040   -7.9240   -1.3520 hc        1 MOL      0.073421
     28 H12         7.0980   -7.4010   -1.7560 hc        1 MOL      0.073421
     29 N3          7.4840   -3.4810   -1.8020 n         1 MOL     -0.298100
     30 C10         6.6040   -2.5030   -2.4770 c3        1 MOL      0.319682
     31 C11         7.3370   -1.1710   -2.7220 c         1 MOL      0.134714
     32 O6          8.3750   -0.9070   -2.1170 o         1 MOL     -0.420991
     33 C12         5.3210   -2.3720   -1.7000 c3        1 MOL     -0.276716
     34 C13         5.7440   -2.0480   -0.2740 c         1 MOL      0.744031
     35 O7          6.3840   -1.0310    0.0310 o         1 MOL     -0.642628
     36 O8          5.2380   -2.6550    0.6800 o         1 MOL     -0.642628
     37 H13         7.8530   -3.2660   -0.8860 hn        1 MOL      0.064202
     38 H14         6.3340   -2.9240   -3.4430 h1        1 MOL      0.000598
     39 H15         4.8290   -3.3330   -1.7970 hc        1 MOL      0.078718
     40 H16         4.6640   -1.5460   -1.9850 hc        1 MOL      0.078718
     41 N4          6.6680   -0.2950   -3.4580 n         1 MOL     -0.160766
     42 C14         7.1520    1.1380   -3.7010 c3        1 MOL     -0.333264
     43 C15         6.9250    2.0450   -2.5370 c         1 MOL      0.702666
     44 O9          7.1640    1.6510   -1.3830 o         1 MOL     -0.647583
     45 H17         5.8290   -0.6720   -3.8890 hn        1 MOL      0.247877
     46 H18         6.6650    1.5780   -4.5800 h1        1 MOL      0.145965
     47 H19         8.2090    1.1330   -3.9560 h1        1 MOL      0.145965
     48 N5          6.5610    3.2660   -2.8320 n         1 MOL     -0.489078
     49 C16         6.1880    4.3600   -1.9150 c3        1 MOL      0.145522
     50 C17         4.6960    4.1610   -1.4610 c         1 MOL      0.479740
     51 O10         3.8690    3.8380   -2.3100 o         1 MOL     -0.462087
     52 C18         6.4110    5.6610   -2.7090 c3        1 MOL     -0.497925
     53 C19         5.9520    6.8110   -1.9340 c         1 MOL      0.646327
     54 N6          6.6580    7.3440   -0.9680 n         1 MOL     -0.822116
     55 O11         4.7490    7.2430   -1.9850 o         1 MOL     -0.493192
     56 H20         6.5080    3.4850   -3.8230 hn        1 MOL      0.300762
     57 H21         6.9950    4.4380   -1.1830 h1        1 MOL      0.018229
     58 H22         5.7410    5.5880   -3.5710 hc        1 MOL      0.162554
     59 H23         7.4890    5.7780   -2.8200 hc        1 MOL      0.162554
     60 H24         7.6480    7.1750   -0.9130 hn        1 MOL      0.375767
     61 H25         6.2430    8.0760   -0.4100 hn        1 MOL      0.375767
     62 N7          4.3780    4.1250   -0.1620 n         1 MOL     -0.298304
     63 C20         2.9690    4.0220    0.2900 c3        1 MOL     -0.092453
     64 C21         2.1150    5.2530    0.1110 c         1 MOL      0.571816
     65 O12         2.5480    6.2370   -0.4550 o         1 MOL     -0.508966
     66 H26         5.0830    4.3880    0.5180 hn        1 MOL      0.252074
     67 H27         2.9030    3.5390    1.2730 h1        1 MOL      0.086954
     68 H28         2.4370    3.3320   -0.3660 h1        1 MOL      0.086954
     69 N8          0.9540    5.3330    0.7410 n         1 MOL     -0.461664
     70 C22         0.2970    4.4790    1.7580 c3        1 MOL      0.153076
     71 C23        -1.1810    4.2480    1.4150 c         1 MOL      0.358557
     72 O13        -1.9010    5.0910    0.9390 o         1 MOL     -0.478393
     73 C24         0.5120    4.9390    3.1760 c3        1 MOL      0.426688
     74 C25         1.9190    4.8510    3.8310 c3        1 MOL     -0.392852
     75 O14         0.2230    6.2510    3.2300 oh        1 MOL     -0.587529
     76 H29         0.4910    6.2100    0.5440 hn        1 MOL      0.290053
     77 H30         0.6830    3.4560    1.6800 h1        1 MOL     -0.019887
     78 H31        -0.2160    4.4020    3.7840 h1        1 MOL     -0.029067
     79 H32         0.0030    6.2880    4.1590 ho        1 MOL      0.374345
     80 H33         1.9450    5.4480    4.7470 hc        1 MOL      0.086529
     81 H34         2.0680    3.8220    4.1380 hc        1 MOL      0.086529
     82 H35         2.6470    5.3080    3.1600 hc        1 MOL      0.086529
     83 N9         -1.7280    3.0500    1.7550 n         1 MOL     -0.291338
     84 C26        -2.9300    2.5120    1.1050 c3        1 MOL      0.169501
     85 C27        -3.9400    2.0190    2.1140 c         1 MOL      0.355777
     86 O15        -3.5290    1.6600    3.1860 o         1 MOL     -0.569524
     87 C28        -2.5060    1.2850    0.2280 c3        1 MOL      0.127436
     88 C29        -1.5730    0.3630    0.9930 c3        1 MOL      0.122702
     89 C30        -2.0030    1.7890   -1.1420 c3        1 MOL     -0.455140
     90 C31        -1.4510   -1.0670    0.4150 c3        1 MOL     -0.228329
     91 H36        -1.2350    2.4300    2.3900 hn        1 MOL      0.173651
     92 H37        -3.4320    3.3430    0.5950 h1        1 MOL      0.093404
     93 H38        -3.3960    0.6890    0.0070 hc        1 MOL     -0.008724
     94 H39        -1.8600    0.3510    2.0410 hc        1 MOL     -0.021891
     95 H40        -0.6200    0.9090    0.9960 hc        1 MOL     -0.021891
     96 H41        -2.7790    2.3200   -1.6860 hc        1 MOL      0.110351
     97 H42        -1.0860    2.3700   -1.1110 hc        1 MOL      0.110351
     98 H43        -1.8110    0.9140   -1.7700 hc        1 MOL      0.110351
     99 H44        -0.6020   -1.5080    0.9500 hc        1 MOL      0.057086
    100 H45        -2.3290   -1.6750    0.6280 hc        1 MOL      0.057086
    101 H46        -1.3010   -1.1410   -0.6590 hc        1 MOL      0.057086
    102 N10        -5.2340    2.0250    1.8320 n         1 MOL     -0.229667
    103 C32        -5.9280    2.2190    0.5440 c3        1 MOL      0.011544
    104 C33        -7.1920    1.4160    0.6090 c         1 MOL      0.528192
    105 O16        -7.4830    0.8430    1.6760 o         1 MOL     -0.528822
    106 C34        -6.3210    3.6930    0.2870 c3        1 MOL     -0.129806
    107 C35        -7.1720    4.2970    1.4440 c         1 MOL      0.659000
    108 O17        -6.6880    5.2340    2.1470 o         1 MOL     -0.658618
    109 O18        -8.3350    3.8100    1.6070 o         1 MOL     -0.658618
    110 H47        -5.8180    1.6850    2.5810 hn        1 MOL      0.259456
    111 H48        -5.3030    1.8750   -0.2860 h1        1 MOL      0.035349
    112 H49        -6.9500    3.7760   -0.5960 hc        1 MOL     -0.001281
    113 H50        -5.3630    4.2130    0.2580 hc        1 MOL     -0.001281
    114 N11        -7.9750    1.2080   -0.4800 n         1 MOL     -0.527160
    115 C36        -9.2410    0.4130   -0.5140 c3        1 MOL      0.459332
    116 C37        -9.3090   -0.4160   -1.8080 c         1 MOL      0.089893
    117 O19        -9.0850    0.1790   -2.8440 o         1 MOL     -0.484084
    118 C38       -10.4490    1.3640   -0.4810 c3        1 MOL     -0.279183
    119 C39       -11.7240    0.5610   -0.5870 ca        1 MOL      0.151507
    120 C40       -12.3200    0.2540   -1.7760 ca        1 MOL     -0.177936
    121 C41       -12.3220    0.1560    0.6450 ca        1 MOL     -0.177936
    122 C42       -13.5810   -0.3920   -1.8070 ca        1 MOL     -0.145522
    123 C43       -13.5970   -0.4430    0.6560 ca        1 MOL     -0.145522
    124 C44       -14.2550   -0.6880   -0.5650 ca        1 MOL     -0.130849
    125 H51        -7.6180    1.5600   -1.3650 hn        1 MOL      0.316836
    126 H52        -9.2150   -0.2420    0.3520 h1        1 MOL     -0.044578
    127 H53       -10.3540    2.0150   -1.3470 hc        1 MOL      0.101837
    128 H54       -10.4440    1.9840    0.4180 hc        1 MOL      0.101837
    129 H55       -11.8280    0.5460   -2.6970 ha        1 MOL      0.137580
    130 H56       -11.9470    0.5760    1.5700 ha        1 MOL      0.137580
    131 H57       -14.0540   -0.7320   -2.7210 ha        1 MOL      0.111675
    132 H58       -14.0350   -0.5220    1.6370 ha        1 MOL      0.111675
    133 H59       -15.1860   -1.2370   -0.6340 ha        1 MOL      0.092788
    134 N12        -9.7390   -1.6690   -1.8220 n         1 MOL      0.294470
    135 C45       -10.2010   -2.5330   -0.7720 c3        1 MOL      0.009899
    136 C46        -9.0770   -3.0340    0.1340 c         1 MOL      0.417366
    137 O20        -9.3640   -3.2250    1.3100 o         1 MOL     -0.605749
    138 C47       -10.8820   -3.7460   -1.3810 c3        1 MOL     -0.029845
    139 C48       -11.1990   -3.2390   -2.7810 c3        1 MOL      0.128514
    140 C49       -10.0560   -2.2960   -3.1340 c3        1 MOL     -0.322646
    141 H60       -10.8970   -1.9640   -0.1650 h1        1 MOL      0.042949
    142 H61       -10.1600   -4.5470   -1.4730 hc        1 MOL      0.022782
    143 H62       -11.7900   -4.0830   -0.8930 hc        1 MOL      0.022782
    144 H63       -11.3250   -4.0690   -3.4680 hc        1 MOL     -0.037640
    145 H64       -12.1480   -2.7020   -2.8400 hc        1 MOL     -0.037640
    146 H65        -9.2390   -2.9320   -3.4750 h1        1 MOL      0.115848
    147 H66       -10.2630   -1.5760   -3.9240 h1        1 MOL      0.115848
    148 N13        -7.8180   -3.0640   -0.2750 n         1 MOL     -0.104945
    149 C50        -6.6710   -3.4590    0.5500 c3        1 MOL      0.109308
    150 C51        -6.7040   -5.0320    0.8070 c         1 MOL      0.446893
    151 O21        -6.6530   -5.7600   -0.1000 o         1 MOL     -0.508668
    152 C52        -5.3010   -3.0530   -0.0510 c3        1 MOL     -0.362481
    153 C53        -5.2530   -1.6330   -0.5650 c3        1 MOL      0.313631
    154 C54        -5.6630   -1.5320   -2.0660 c         1 MOL      0.651968
    155 O22        -5.3590   -0.4870   -2.6250 o         1 MOL     -0.665260
    156 O23        -6.1970   -2.4740   -2.6780 o         1 MOL     -0.665260
    157 H67        -7.5630   -2.8380   -1.2230 hn        1 MOL      0.050599
    158 H68        -6.6750   -2.8680    1.4620 h1        1 MOL      0.108235
    159 H69        -4.9930   -3.7430   -0.8430 hc        1 MOL      0.078502
    160 H70        -4.6260   -3.1070    0.8000 hc        1 MOL      0.078502
    161 H71        -4.2390   -1.2330   -0.5250 hc        1 MOL     -0.113470
    162 H72        -5.8830   -1.0410    0.0930 hc        1 MOL     -0.113470
    163 N14        -6.8820   -5.4560    2.1010 n         1 MOL     -0.431195
    164 C55        -7.4120   -4.7040    3.2960 c3        1 MOL     -0.048362
    165 H73        -7.1360   -5.2320    4.2090 h1        1 MOL      0.053903
    166 H74        -6.9850   -3.7010    3.3130 h1        1 MOL      0.053903
    167 H75        -8.4980   -4.6350    3.2310 h1        1 MOL      0.053903
    168 H76        -6.7670   -6.4390    2.2800 hn        1 MOL      0.268115
    169 Ca1         8.5350    0.1250    0.3040 Ca        1 MOL      1.714141
    170 O24         6.6970    1.9230    1.3590 oh        1 MOL     -0.756646
    171 H77         5.9680    2.0970    1.9520 ho        1 MOL      0.356318
    172 H78         7.0750    2.7870    1.1970 ho        1 MOL      0.356318
    173 O25         9.5840    1.8250    2.0870 oh        1 MOL     -0.756646
    174 H79        10.4960    1.6000    2.2680 ho        1 MOL      0.356318
    175 H80         9.4420    2.6460    2.5550 ho        1 MOL      0.356318
    176 O26        11.2210   -0.1870    0.6750 oh        1 MOL     -0.756646
    177 H81        11.5160   -1.0820    0.8180 ho        1 MOL      0.356318
    178 H82        11.5950    0.3120    1.3990 ho        1 MOL      0.356318
    179 O27        10.3730    1.6670   -1.1050 oh        1 MOL     -0.756646
    180 H83        10.8170    1.7360   -1.9450 ho        1 MOL      0.356318
    181 H84        10.8120    2.3030   -0.5350 ho        1 MOL      0.356318
@<TRIPOS>BOND
     1    1    2 1   
     2    1    4 1   
     3    1    5 1   
     4    1    6 1   
     5    2    3 2   
     6    2    7 1   
     7    7    8 1   
     8    7   15 1   
     9    8    9 1   
    10    8   11 1   
    11    8   16 1   
    12    9   10 2   
    13    9   19 1   
    14   11   12 1   
    15   11   17 1   
    16   11   18 1   
    17   12   13 1   
    18   12   14 1   
    19   19   20 1   
    20   19   24 1   
    21   20   21 1   
    22   20   23 1   
    23   20   25 1   
    24   21   22 2   
    25   21   29 1   
    26   23   26 1   
    27   23   27 1   
    28   23   28 1   
    29   29   30 1   
    30   29   37 1   
    31   30   31 1   
    32   30   33 1   
    33   30   38 1   
    34   31   32 2   
    35   31   41 1   
    36   33   34 1   
    37   33   39 1   
    38   33   40 1   
    39   34   35 1   
    40   34   36 1   
    41   41   42 1   
    42   41   45 1   
    43   42   43 1   
    44   42   46 1   
    45   42   47 1   
    46   43   44 2   
    47   43   48 1   
    48   48   49 1   
    49   48   56 1   
    50   49   50 1   
    51   49   52 1   
    52   49   57 1   
    53   50   51 2   
    54   50   62 1   
    55   52   53 1   
    56   52   58 1   
    57   52   59 1   
    58   53   54 1   
    59   53   55 2   
    60   54   60 1   
    61   54   61 1   
    62   62   63 1   
    63   62   66 1   
    64   63   64 1   
    65   63   67 1   
    66   63   68 1   
    67   64   65 2   
    68   64   69 1   
    69   69   70 1   
    70   69   76 1   
    71   70   71 1   
    72   70   73 1   
    73   70   77 1   
    74   71   72 2   
    75   71   83 1   
    76   73   74 1   
    77   73   75 1   
    78   73   78 1   
    79   74   80 1   
    80   74   81 1   
    81   74   82 1   
    82   75   79 1   
    83   83   84 1   
    84   83   91 1   
    85   84   85 1   
    86   84   87 1   
    87   84   92 1   
    88   85   86 2   
    89   85  102 1   
    90   87   88 1   
    91   87   89 1   
    92   87   93 1   
    93   88   90 1   
    94   88   94 1   
    95   88   95 1   
    96   89   96 1   
    97   89   97 1   
    98   89   98 1   
    99   90   99 1   
   100   90  100 1   
   101   90  101 1   
   102  102  103 1   
   103  102  110 1   
   104  103  104 1   
   105  103  106 1   
   106  103  111 1   
   107  104  105 2   
   108  104  114 1   
   109  106  107 1   
   110  106  112 1   
   111  106  113 1   
   112  107  108 1   
   113  107  109 1   
   114  114  115 1   
   115  114  125 1   
   116  115  116 1   
   117  115  118 1   
   118  115  126 1   
   119  116  117 2   
   120  116  134 1   
   121  118  119 1   
   122  118  127 1   
   123  118  128 1   
   124  119  120 ar  
   125  119  121 ar  
   126  120  122 ar  
   127  120  129 1   
   128  121  123 ar  
   129  121  130 1   
   130  122  124 ar  
   131  122  131 1   
   132  123  124 ar  
   133  123  132 1   
   134  124  133 1   
   135  134  135 1   
   136  134  140 1   
   137  135  136 1   
   138  135  138 1   
   139  135  141 1   
   140  136  137 2   
   141  136  148 1   
   142  138  139 1   
   143  138  142 1   
   144  138  143 1   
   145  139  140 1   
   146  139  144 1   
   147  139  145 1   
   148  140  146 1   
   149  140  147 1   
   150  148  149 1   
   151  148  157 1   
   152  149  150 1   
   153  149  152 1   
   154  149  158 1   
   155  150  151 2   
   156  150  163 1   
   157  152  153 1   
   158  152  159 1   
   159  152  160 1   
   160  153  154 1   
   161  153  161 1   
   162  153  162 1   
   163  154  155 1   
   164  154  156 1   
   165  163  164 1   
   166  163  168 1   
   167  164  165 1   
   168  164  166 1   
   169  164  167 1   
   170  170  171 1   
   171  170  172 1   
   172  173  174 1   
   173  173  175 1   
   174  176  177 1   
   175  176  178 1   
   176  179  180 1   
   177  179  181 1   
@<TRIPOS>SUBSTRUCTURE
     1 MOL         1 TEMP              0 ****  ****    0 ROOT
