@<TRIPOS>MOLECULE
MOL
  181   177     1     0     0
SMALL
resp


@<TRIPOS>ATOM
      1 C1          1.7540    5.9430   -2.7590 c3        1 MOL     -0.435437
      2 C2          3.1070    5.9420   -2.1600 c         1 MOL      0.696422
      3 O1          3.2650    6.5000   -1.0700 o         1 MOL     -0.565825
      4 H1          1.0060    5.9530   -1.9660 hc        1 MOL      0.106946
      5 H2          1.6330    6.8280   -3.3830 hc        1 MOL      0.106946
      6 H3          1.6250    5.0480   -3.3680 hc        1 MOL      0.106946
      7 N1          4.1180    5.4100   -2.8740 n         1 MOL     -0.584733
      8 C3          5.4220    5.1270   -2.2880 c3        1 MOL      0.186853
      9 C4          5.3320    3.9530   -1.3370 c         1 MOL      0.644372
     10 O2          4.9110    2.8380   -1.6530 o         1 MOL     -0.616923
     11 C5          6.4950    4.9130   -3.3480 c3        1 MOL     -0.168480
     12 C6          7.8860    5.0590   -2.6890 c         1 MOL      0.657680
     13 O3          8.1820    6.1800   -2.1320 o         1 MOL     -0.716484
     14 O4          8.6490    4.0400   -2.7250 o         1 MOL     -0.716484
     15 H4          3.9690    4.9270   -3.7520 hn        1 MOL      0.285109
     16 H5          5.7170    5.9520   -1.6340 h1        1 MOL      0.031695
     17 H6          6.4390    5.7950   -3.9890 hc        1 MOL      0.009457
     18 H7          6.4900    3.9120   -3.7900 hc        1 MOL      0.009457
     19 N2          5.7810    4.1440   -0.0790 n         1 MOL     -0.584081
     20 C7          5.6540    3.1820    1.0660 c3        1 MOL      0.428307
     21 C8          4.4290    3.5000    1.9400 c         1 MOL      0.408767
     22 O5          3.9260    4.6360    1.9110 o         1 MOL     -0.541422
     23 C9          7.0000    3.2270    1.7650 c3        1 MOL     -0.176630
     24 H8          5.8230    5.1150    0.2020 hn        1 MOL      0.281624
     25 H9          5.4710    2.1800    0.6810 h1        1 MOL      0.048415
     26 H10         7.2450    2.4170    2.4550 hc        1 MOL      0.028109
     27 H11         7.7050    3.1020    0.9430 hc        1 MOL      0.028109
     28 H12         7.2080    4.1790    2.2550 hc        1 MOL      0.028109
     29 N3          4.0570    2.7310    2.9020 n         1 MOL     -0.458852
     30 C10         4.5870    1.4320    3.5110 c3        1 MOL      0.109485
     31 C11         4.6970    0.3250    2.5110 c         1 MOL      0.576871
     32 O6          3.8580    0.1900    1.6020 o         1 MOL     -0.560607
     33 C12         3.6580    0.9860    4.5670 c3        1 MOL     -0.375334
     34 C13         2.1880    0.8310    4.1110 c         1 MOL      0.833556
     35 O7          1.6150   -0.2830    4.2320 o         1 MOL     -0.754816
     36 O8          1.5330    1.8210    3.6800 o         1 MOL     -0.754816
     37 H13         3.2060    3.0730    3.3430 hn        1 MOL      0.319939
     38 H14         5.5620    1.6380    3.9610 h1        1 MOL      0.039973
     39 H15         3.5820    1.7500    5.3350 hc        1 MOL      0.079279
     40 H16         4.0330    0.0140    4.8790 hc        1 MOL      0.079279
     41 N4          5.6630   -0.6060    2.7310 n         1 MOL     -0.469267
     42 C14         5.9650   -1.6420    1.7890 c3        1 MOL     -0.021742
     43 C15         6.6340   -1.1900    0.5220 c         1 MOL      0.518049
     44 O9          6.9000    0.0070    0.2940 o         1 MOL     -0.474157
     45 H17         6.2960   -0.5910    3.5190 hn        1 MOL      0.298492
     46 H18         5.0310   -2.1060    1.4680 h1        1 MOL      0.067837
     47 H19         6.5310   -2.4100    2.3270 h1        1 MOL      0.067837
     48 N5          7.1070   -2.1410   -0.2690 n         1 MOL     -0.453714
     49 C16         6.9280   -3.5820   -0.2840 c3        1 MOL      0.014010
     50 C17         6.2000   -4.1610   -1.5930 c         1 MOL      0.514541
     51 O10         5.9950   -5.3780   -1.6910 o         1 MOL     -0.507408
     52 C18         8.3150   -4.1720   -0.0180 c3        1 MOL     -0.147567
     53 C19         9.0440   -3.8430    1.2220 c         1 MOL      0.683618
     54 N6          8.5820   -4.0440    2.4180 n         1 MOL     -0.825230
     55 O11        10.1460   -3.3060    1.1270 o         1 MOL     -0.563877
     56 H20         7.5160   -1.7260   -1.0980 hn        1 MOL      0.283956
     57 H21         6.4330   -3.9850    0.5940 h1        1 MOL      0.042619
     58 H22         9.0140   -3.9360   -0.8250 hc        1 MOL      0.052936
     59 H23         8.2620   -5.2550   -0.1240 hc        1 MOL      0.052936
     60 H24         7.7080   -4.5570    2.4640 hn        1 MOL      0.389144
     61 H25         9.0320   -3.4680    3.1220 hn        1 MOL      0.389144
     62 N7          5.6480   -3.2900   -2.4540 n         1 MOL     -0.312626
     63 C20         4.9690   -3.5920   -3.7190 c3        1 MOL     -0.220887
     64 C21         3.4670   -4.0470   -3.5330 c         1 MOL      0.623036
     65 O12         2.8970   -4.5900   -4.4590 o         1 MOL     -0.556475
     66 H26         5.6860   -2.3370   -2.1310 hn        1 MOL      0.284815
     67 H27         5.4320   -4.5010   -4.1050 h1        1 MOL      0.133531
     68 H28         5.1200   -2.7810   -4.4300 h1        1 MOL      0.133531
     69 N8          2.8940   -3.8800   -2.3400 n         1 MOL     -0.379356
     70 C22         1.6440   -4.4440   -1.8940 c3        1 MOL     -0.062593
     71 C23         0.4900   -3.4740   -1.5050 c         1 MOL      0.687469
     72 O13         0.7340   -2.4110   -0.9990 o         1 MOL     -0.601341
     73 C24         1.8660   -5.5070   -0.8040 c3        1 MOL      0.368386
     74 C25         2.6120   -6.7440   -1.2270 c3        1 MOL     -0.187522
     75 O14         2.7720   -4.9070    0.1770 oh        1 MOL     -0.660718
     76 H29         3.4390   -3.4410   -1.6020 hn        1 MOL      0.238279
     77 H30         1.2310   -5.0360   -2.7060 h1        1 MOL      0.060167
     78 H31         0.9580   -5.8050   -0.2920 h1        1 MOL      0.005416
     79 H32         2.3420   -4.2280    0.6940 ho        1 MOL      0.407721
     80 H33         2.0140   -7.2680   -1.9750 hc        1 MOL      0.051829
     81 H34         3.5940   -6.4970   -1.6190 hc        1 MOL      0.051829
     82 H35         2.6080   -7.5160   -0.4560 hc        1 MOL      0.051829
     83 N9         -0.7910   -3.9350   -1.6740 n         1 MOL     -0.526788
     84 C26        -1.9670   -3.1910   -1.4820 c3        1 MOL     -0.010069
     85 C27        -2.7120   -3.5880   -0.2290 c         1 MOL      0.403045
     86 O15        -2.9200   -4.8240    0.0090 o         1 MOL     -0.562296
     87 C28        -2.8340   -3.1880   -2.7410 c3        1 MOL      0.119531
     88 C29        -4.3340   -2.6090   -2.5610 c3        1 MOL      0.104735
     89 C30        -2.1800   -2.4690   -3.9330 c3        1 MOL     -0.312239
     90 C31        -5.1830   -2.3900   -3.8330 c3        1 MOL     -0.061391
     91 H36        -0.8830   -4.8310   -2.1230 hn        1 MOL      0.267865
     92 H37        -1.5800   -2.1920   -1.2880 h1        1 MOL      0.216065
     93 H38        -2.9970   -4.2170   -3.0500 hc        1 MOL      0.008785
     94 H39        -4.3000   -1.6290   -2.0770 hc        1 MOL     -0.031596
     95 H40        -4.8820   -3.2200   -1.8480 hc        1 MOL     -0.031596
     96 H41        -2.5240   -2.8000   -4.9070 hc        1 MOL      0.075012
     97 H42        -2.4400   -1.4210   -3.7820 hc        1 MOL      0.075012
     98 H43        -1.0960   -2.5840   -3.8760 hc        1 MOL      0.075012
     99 H44        -4.6370   -1.6700   -4.4440 hc        1 MOL     -0.005576
    100 H45        -5.4980   -3.3210   -4.2980 hc        1 MOL     -0.005576
    101 H46        -6.1110   -1.9010   -3.5370 hc        1 MOL     -0.005576
    102 N10        -3.3300   -2.6820    0.5420 n         1 MOL     -0.184165
    103 C32        -4.1640   -3.1010    1.6530 c3        1 MOL      0.007246
    104 C33        -5.4400   -2.2610    1.8630 c         1 MOL      0.582940
    105 O16        -6.1850   -2.6240    2.7490 o         1 MOL     -0.551146
    106 C34        -3.3270   -3.1990    2.8630 c3        1 MOL     -0.050584
    107 C35        -2.3730   -2.0050    3.0040 c         1 MOL      0.813761
    108 O17        -1.1570   -2.1140    2.8940 o         1 MOL     -0.820203
    109 O18        -2.8090   -0.8770    3.3010 o         1 MOL     -0.820203
    110 H47        -3.2340   -1.7200    0.2690 hn        1 MOL      0.148430
    111 H48        -4.5840   -4.1030    1.5640 h1        1 MOL      0.081757
    112 H49        -2.7940   -4.1410    2.9680 hc        1 MOL      0.013049
    113 H50        -3.9440   -3.1450    3.7570 hc        1 MOL      0.013049
    114 N11        -5.7080   -1.2180    1.0380 n         1 MOL     -0.709175
    115 C36        -7.0470   -0.5290    0.8890 c3        1 MOL      0.532590
    116 C37        -6.7700    0.9680    0.4140 c         1 MOL      0.157183
    117 O19        -7.1650    1.3990   -0.6520 o         1 MOL     -0.461511
    118 C38        -8.0930   -1.3340    0.1390 c3        1 MOL     -0.330695
    119 C39        -9.5190   -0.9200    0.2210 ca        1 MOL      0.180437
    120 C40       -10.1300   -0.5180    1.3780 ca        1 MOL     -0.192109
    121 C41       -10.2600   -0.8960   -0.9610 ca        1 MOL     -0.192109
    122 C42       -11.4550   -0.0730    1.3560 ca        1 MOL     -0.097291
    123 C43       -11.5860   -0.4690   -1.0040 ca        1 MOL     -0.097291
    124 C44       -12.1750    0.0020    0.1500 ca        1 MOL     -0.138557
    125 H51        -4.9280   -0.8940    0.4840 hn        1 MOL      0.302413
    126 H52        -7.5480   -0.4020    1.8450 h1        1 MOL     -0.015408
    127 H53        -8.0520   -2.3500    0.5230 hc        1 MOL      0.111538
    128 H54        -7.8400   -1.4170   -0.9140 hc        1 MOL      0.111538
    129 H55        -9.6160   -0.5250    2.3280 ha        1 MOL      0.120734
    130 H56        -9.7350   -1.0950   -1.8770 ha        1 MOL      0.120734
    131 H57       -11.9890    0.1790    2.2580 ha        1 MOL      0.099411
    132 H58       -12.1590   -0.4410   -1.9130 ha        1 MOL      0.099411
    133 H59       -13.1720    0.4290    0.1170 ha        1 MOL      0.102033
    134 N12        -5.9400    1.8070    1.1290 n         1 MOL     -0.010025
    135 C45        -5.6840    3.2570    0.7210 c3        1 MOL      0.006475
    136 C46        -5.0120    3.4630   -0.6370 c         1 MOL      0.165458
    137 O20        -5.1230    4.6290   -1.1040 o         1 MOL     -0.485185
    138 C47        -4.7820    3.8390    1.8170 c3        1 MOL     -0.022412
    139 C48        -5.2310    2.9620    3.0290 c3        1 MOL     -0.127938
    140 C49        -5.4360    1.5910    2.4160 c3        1 MOL     -0.038687
    141 H60        -6.6160    3.8030    0.8430 h1        1 MOL      0.100485
    142 H61        -3.7420    3.5550    1.6670 hc        1 MOL      0.053322
    143 H62        -4.9770    4.8970    2.0110 hc        1 MOL      0.053322
    144 H63        -4.4070    2.9860    3.7350 hc        1 MOL      0.034748
    145 H64        -6.1950    3.2800    3.4300 hc        1 MOL      0.034748
    146 H65        -4.4650    1.0880    2.3580 h1        1 MOL      0.071380
    147 H66        -6.1500    0.9900    2.9830 h1        1 MOL      0.071380
    148 N13        -4.3300    2.4840   -1.2330 n         1 MOL      0.027180
    149 C50        -3.8020    2.6000   -2.5820 c3        1 MOL     -0.258121
    150 C51        -4.9250    2.5840   -3.5920 c         1 MOL      0.503981
    151 O21        -4.8980    3.2560   -4.6400 o         1 MOL     -0.576900
    152 C52        -2.9660    1.3450   -2.9410 c3        1 MOL      0.296486
    153 C53        -1.7850    1.0570   -1.9690 c3        1 MOL     -0.261520
    154 C54        -2.2150    0.5540   -0.5710 c         1 MOL      0.614955
    155 O22        -1.4680    0.8610    0.3470 o         1 MOL     -0.702229
    156 O23        -3.3280    0.0130   -0.3350 o         1 MOL     -0.702229
    157 H67        -4.1420    1.6170   -0.7500 hn        1 MOL      0.290695
    158 H68        -3.2190    3.5110   -2.6560 h1        1 MOL      0.130170
    159 H69        -2.5680    1.4790   -3.9420 hc        1 MOL     -0.049129
    160 H70        -3.6290    0.4760   -2.9430 hc        1 MOL     -0.049129
    161 H71        -1.1660    1.9570   -1.8980 hc        1 MOL      0.056086
    162 H72        -1.3220    0.2210   -2.4970 hc        1 MOL      0.056086
    163 N14        -5.9840    1.8010   -3.3790 n         1 MOL     -0.142994
    164 C55        -7.2550    1.8730   -4.1050 c3        1 MOL     -0.287387
    165 H73        -8.0790    1.8990   -3.3920 h1        1 MOL      0.108041
    166 H74        -7.2740    2.7750   -4.7150 h1        1 MOL      0.108041
    167 H75        -7.3580    0.9980   -4.7460 h1        1 MOL      0.108041
    168 H76        -6.0190    1.2220   -2.5540 hn        1 MOL      0.193663
    169 Ca1        -0.6360    0.4830    2.8180 Ca        1 MOL      1.769342
    170 O24         1.1030   -0.4390    1.1310 oh        1 MOL     -0.805510
    171 H77         0.8860   -1.0600    0.4350 ho        1 MOL      0.400302
    172 H78         2.0420   -0.5630    1.2760 ho        1 MOL      0.400302
    173 O25        -1.6320    2.8610    3.4800 oh        1 MOL     -0.805510
    174 H79        -1.9960    3.5760    2.9480 ho        1 MOL      0.400302
    175 H80        -0.9950    3.2870    4.0400 ho        1 MOL      0.400302
    176 O26         0.4660    2.5610    0.7510 oh        1 MOL     -0.805510
    177 H81        -0.1550    1.9180    0.4240 ho        1 MOL      0.400302
    178 H82         1.2940    2.3380    0.3150 ho        1 MOL      0.400302
    179 O27        -1.0320    0.5160    5.4490 oh        1 MOL     -0.805510
    180 H83        -0.4240    0.5640    6.1840 ho        1 MOL      0.400302
    181 H84        -1.5380   -0.2840    5.6010 ho        1 MOL      0.400302
@<TRIPOS>BOND
     1    1    2 1   
     2    1    4 1   
     3    1    5 1   
     4    1    6 1   
     5    2    3 2   
     6    2    7 1   
     7    7    8 1   
     8    7   15 1   
     9    8    9 1   
    10    8   11 1   
    11    8   16 1   
    12    9   10 2   
    13    9   19 1   
    14   11   12 1   
    15   11   17 1   
    16   11   18 1   
    17   12   13 1   
    18   12   14 1   
    19   19   20 1   
    20   19   24 1   
    21   20   21 1   
    22   20   23 1   
    23   20   25 1   
    24   21   22 2   
    25   21   29 1   
    26   23   26 1   
    27   23   27 1   
    28   23   28 1   
    29   29   30 1   
    30   29   37 1   
    31   30   31 1   
    32   30   33 1   
    33   30   38 1   
    34   31   32 2   
    35   31   41 1   
    36   33   34 1   
    37   33   39 1   
    38   33   40 1   
    39   34   35 1   
    40   34   36 1   
    41   41   42 1   
    42   41   45 1   
    43   42   43 1   
    44   42   46 1   
    45   42   47 1   
    46   43   44 2   
    47   43   48 1   
    48   48   49 1   
    49   48   56 1   
    50   49   50 1   
    51   49   52 1   
    52   49   57 1   
    53   50   51 2   
    54   50   62 1   
    55   52   53 1   
    56   52   58 1   
    57   52   59 1   
    58   53   54 1   
    59   53   55 2   
    60   54   60 1   
    61   54   61 1   
    62   62   63 1   
    63   62   66 1   
    64   63   64 1   
    65   63   67 1   
    66   63   68 1   
    67   64   65 2   
    68   64   69 1   
    69   69   70 1   
    70   69   76 1   
    71   70   71 1   
    72   70   73 1   
    73   70   77 1   
    74   71   72 2   
    75   71   83 1   
    76   73   74 1   
    77   73   75 1   
    78   73   78 1   
    79   74   80 1   
    80   74   81 1   
    81   74   82 1   
    82   75   79 1   
    83   83   84 1   
    84   83   91 1   
    85   84   85 1   
    86   84   87 1   
    87   84   92 1   
    88   85   86 2   
    89   85  102 1   
    90   87   88 1   
    91   87   89 1   
    92   87   93 1   
    93   88   90 1   
    94   88   94 1   
    95   88   95 1   
    96   89   96 1   
    97   89   97 1   
    98   89   98 1   
    99   90   99 1   
   100   90  100 1   
   101   90  101 1   
   102  102  103 1   
   103  102  110 1   
   104  103  104 1   
   105  103  106 1   
   106  103  111 1   
   107  104  105 2   
   108  104  114 1   
   109  106  107 1   
   110  106  112 1   
   111  106  113 1   
   112  107  108 1   
   113  107  109 1   
   114  114  115 1   
   115  114  125 1   
   116  115  116 1   
   117  115  118 1   
   118  115  126 1   
   119  116  117 2   
   120  116  134 1   
   121  118  119 1   
   122  118  127 1   
   123  118  128 1   
   124  119  120 ar  
   125  119  121 ar  
   126  120  122 ar  
   127  120  129 1   
   128  121  123 ar  
   129  121  130 1   
   130  122  124 ar  
   131  122  131 1   
   132  123  124 ar  
   133  123  132 1   
   134  124  133 1   
   135  134  135 1   
   136  134  140 1   
   137  135  136 1   
   138  135  138 1   
   139  135  141 1   
   140  136  137 2   
   141  136  148 1   
   142  138  139 1   
   143  138  142 1   
   144  138  143 1   
   145  139  140 1   
   146  139  144 1   
   147  139  145 1   
   148  140  146 1   
   149  140  147 1   
   150  148  149 1   
   151  148  157 1   
   152  149  150 1   
   153  149  152 1   
   154  149  158 1   
   155  150  151 2   
   156  150  163 1   
   157  152  153 1   
   158  152  159 1   
   159  152  160 1   
   160  153  154 1   
   161  153  161 1   
   162  153  162 1   
   163  154  155 1   
   164  154  156 1   
   165  163  164 1   
   166  163  168 1   
   167  164  165 1   
   168  164  166 1   
   169  164  167 1   
   170  170  171 1   
   171  170  172 1   
   172  173  174 1   
   173  173  175 1   
   174  176  177 1   
   175  176  178 1   
   176  179  180 1   
   177  179  181 1   
@<TRIPOS>SUBSTRUCTURE
     1 MOL         1 TEMP              0 ****  ****    0 ROOT
