@<TRIPOS>MOLECULE
MOL
  195   189     1     0     0
SMALL
resp


@<TRIPOS>ATOM
      1 C1         -3.5240    7.0260    1.0190 c3        1 MOL     -0.368645
      2 C2         -3.5400    5.4980    1.2470 c         1 MOL      0.663223
      3 O1         -3.2660    4.9460    2.2870 o         1 MOL     -0.572060
      4 H1         -3.7520    7.5350    1.9550 hc        1 MOL      0.096747
      5 H2         -2.5390    7.3320    0.6700 hc        1 MOL      0.096747
      6 H3         -4.2720    7.2900    0.2710 hc        1 MOL      0.096747
      7 N1         -3.6120    4.7660    0.1410 n         1 MOL     -0.592665
      8 C3         -3.6380    3.3350    0.1330 c3        1 MOL      0.260928
      9 C4         -2.2710    2.7650   -0.2140 c         1 MOL      0.230964
     10 O2         -2.1660    1.6820   -0.7880 o         1 MOL     -0.416188
     11 C5         -4.7310    2.8200   -0.8190 c3        1 MOL     -0.117657
     12 C6         -4.5740    3.2980   -2.3170 c         1 MOL      0.692765
     13 O3         -4.5380    4.5620   -2.5020 o         1 MOL     -0.714928
     14 O4         -4.6130    2.3970   -3.2190 o         1 MOL     -0.714928
     15 H4         -3.7540    5.2380   -0.7400 hn        1 MOL      0.296801
     16 H5         -3.8610    2.9870    1.1480 h1        1 MOL      0.054841
     17 H6         -5.6720    3.2010   -0.4240 hc        1 MOL      0.014467
     18 H7         -4.6710    1.7370   -0.7940 hc        1 MOL      0.014467
     19 N2         -1.1380    3.4480    0.1120 n         1 MOL     -0.062599
     20 C7          0.2810    3.0370   -0.0560 c3        1 MOL      0.030008
     21 C8          0.9000    2.6860    1.2720 c         1 MOL      0.459039
     22 O5          0.6230    3.3450    2.2680 o         1 MOL     -0.497234
     23 C9          0.9870    4.2470   -0.6660 c3        1 MOL     -0.084433
     24 C10         0.3680    4.5800   -2.0540 c3        1 MOL     -0.124403
     25 C11         0.9600    3.8070   -3.2020 c3        1 MOL      0.096505
     26 C12         0.3240    4.4880   -4.3930 c3        1 MOL      0.081595
     27 N3          0.9550    4.0400   -5.6570 n4        1 MOL     -0.543885
     28 H8         -1.2790    4.2210    0.7460 hn        1 MOL      0.172720
     29 H9          0.2750    2.1940   -0.7480 h1        1 MOL      0.121199
     30 H10         2.0560    4.1300   -0.8020 hc        1 MOL      0.060367
     31 H11         0.8250    5.0140    0.0960 hc        1 MOL      0.060367
     32 H12         0.6950    5.6060   -2.1390 hc        1 MOL      0.023350
     33 H13        -0.7150    4.6630   -2.0230 hc        1 MOL      0.023350
     34 H14         0.6580    2.7540   -3.1920 hc        1 MOL      0.037402
     35 H15         2.0140    4.1080   -3.1580 hc        1 MOL      0.037402
     36 H16         0.3870    5.5690   -4.2800 hx        1 MOL      0.081030
     37 H17        -0.7020    4.1350   -4.4950 hx        1 MOL      0.081030
     38 H18         1.7940    4.5850   -5.7620 hn        1 MOL      0.368226
     39 H19         1.0190    3.0290   -5.6990 hn        1 MOL      0.368226
     40 H20         0.4030    4.2460   -6.4820 hn        1 MOL      0.368226
     41 N4          1.7520    1.6840    1.3780 n         1 MOL     -0.360706
     42 C13         2.1010    0.6380    0.3350 c3        1 MOL     -0.040339
     43 C14         2.6310    1.1570   -1.0260 c         1 MOL      0.096953
     44 O6          2.1360    0.7980   -2.0740 o         1 MOL     -0.487170
     45 C15         1.0830   -0.4480    0.2220 c3        1 MOL     -0.071006
     46 C16         0.4360   -0.7630    1.5610 c         1 MOL      0.521872
     47 O7         -0.4690    0.0090    2.0940 o         1 MOL     -0.659751
     48 O8          0.9920   -1.5580    2.3510 o         1 MOL     -0.659751
     49 H21         2.0920    1.5990    2.3380 hn        1 MOL      0.240334
     50 H22         2.9800    0.1990    0.8020 h1        1 MOL      0.196432
     51 H23         1.6610   -1.3280   -0.0670 hc        1 MOL      0.063643
     52 H24         0.2670   -0.2670   -0.4720 hc        1 MOL      0.063643
     53 N5          3.6720    2.0090   -1.2080 n         1 MOL     -0.283128
     54 C17         4.3240    2.6060   -0.0640 c3        1 MOL      0.018647
     55 C18         5.3920    3.6730   -0.5040 c         1 MOL      0.397200
     56 O9          5.0640    4.4540   -1.4050 o         1 MOL     -0.518897
     57 H25         3.7840    2.3770   -2.1470 hn        1 MOL      0.316732
     58 H26         4.7930    1.8600    0.5830 h1        1 MOL      0.045772
     59 H27         3.6550    3.0890    0.6500 h1        1 MOL      0.045772
     60 N6          6.6670    3.7240   -0.0200 n         1 MOL     -0.313283
     61 C19         7.3110    2.8090    0.9440 c3        1 MOL     -0.000084
     62 C20         7.8940    1.5610    0.3470 c         1 MOL      0.516204
     63 O10         8.0910    1.3670   -0.8860 o         1 MOL     -0.450768
     64 C21         8.3260    3.6950    1.6930 c3        1 MOL     -0.307509
     65 C22         9.4470    4.3290    0.8290 c         1 MOL      0.761522
     66 O11        10.5140    3.7180    0.5800 o         1 MOL     -0.662566
     67 O12         9.2680    5.3980    0.2530 o         1 MOL     -0.662566
     68 H28         7.2190    4.5170   -0.2980 hn        1 MOL      0.282984
     69 H29         6.5830    2.5810    1.7290 h1        1 MOL      0.061693
     70 H30         8.8720    3.1960    2.5030 hc        1 MOL      0.052702
     71 H31         7.9100    4.5550    2.2040 hc        1 MOL      0.052702
     72 N7          8.3290    0.6430    1.2020 n         1 MOL     -0.373885
     73 C23         8.7470   -0.7030    0.7710 c3        1 MOL     -0.198639
     74 C24         7.5900   -1.6450    0.3150 c         1 MOL      0.512600
     75 O13         7.7300   -2.3830   -0.6850 o         1 MOL     -0.513436
     76 H32         8.3540    0.8410    2.1980 hn        1 MOL      0.271638
     77 H33         9.2710   -1.2270    1.5650 h1        1 MOL      0.144922
     78 H34         9.3810   -0.6370   -0.1070 h1        1 MOL      0.144922
     79 N8          6.4000   -1.5700    0.9780 n         1 MOL     -0.406541
     80 C25         5.2880   -2.5390    0.8300 c3        1 MOL      0.010706
     81 C26         4.4840   -2.1450   -0.4480 c         1 MOL      0.166220
     82 O14         4.5360   -1.0080   -0.8420 o         1 MOL     -0.338427
     83 C27         4.2930   -2.4320    2.0390 c3        1 MOL      0.409369
     84 C28         5.0180   -3.0030    3.3070 c3        1 MOL     -0.335883
     85 O15         3.1850   -3.2870    1.8310 oh        1 MOL     -0.561707
     86 H35         6.2260   -0.8850    1.7040 hn        1 MOL      0.225164
     87 H36         5.7810   -3.5020    0.7170 h1        1 MOL      0.088436
     88 H37         4.0460   -1.3820    2.1960 h1        1 MOL     -0.011058
     89 H38         2.4120   -2.7440    1.9770 ho        1 MOL      0.273155
     90 H39         5.5960   -3.9000    3.0890 hc        1 MOL      0.076598
     91 H40         5.7380   -2.2390    3.6060 hc        1 MOL      0.076598
     92 H41         4.2470   -3.2130    4.0450 hc        1 MOL      0.076598
     93 N9          3.9230   -3.0940   -1.2270 n         1 MOL     -0.105352
     94 C29         3.3290   -2.8360   -2.5830 c3        1 MOL     -0.078569
     95 C30         1.8520   -3.3880   -2.6900 c         1 MOL      0.299004
     96 O16         1.1660   -3.2040   -3.6990 o         1 MOL     -0.521908
     97 C31         4.1220   -3.4350   -3.7140 c3        1 MOL      0.062181
     98 C32         4.4020   -4.9320   -3.5930 c3        1 MOL     -0.051739
     99 C33         5.4420   -2.6060   -3.9360 c3        1 MOL     -0.166830
    100 C34         5.3950   -5.5080   -2.5870 c3        1 MOL     -0.241451
    101 H42         4.1780   -4.0430   -0.9860 hn        1 MOL      0.220551
    102 H43         3.2970   -1.7640   -2.7910 h1        1 MOL      0.206344
    103 H44         3.5740   -3.2040   -4.6300 hc        1 MOL      0.025597
    104 H45         4.8320   -5.2340   -4.5440 hc        1 MOL      0.030527
    105 H46         3.4400   -5.4510   -3.5470 hc        1 MOL      0.030527
    106 H47         5.2020   -1.5760   -4.1790 hc        1 MOL      0.061714
    107 H48         6.1010   -2.6790   -3.0630 hc        1 MOL      0.061714
    108 H49         5.9610   -3.0180   -4.8000 hc        1 MOL      0.061714
    109 H50         5.4950   -6.5700   -2.8130 hc        1 MOL      0.072014
    110 H51         6.3320   -4.9730   -2.7340 hc        1 MOL      0.072014
    111 H52         4.9630   -5.4260   -1.5870 hc        1 MOL      0.072014
    112 N10         1.3970   -4.0270   -1.6640 n         1 MOL     -0.058095
    113 C35         0.0860   -4.5410   -1.4660 c3        1 MOL     -0.037578
    114 C36        -0.9780   -3.4730   -1.0840 c         1 MOL      0.354347
    115 O17        -1.6140   -3.4620   -0.0380 o         1 MOL     -0.452299
    116 C37         0.1410   -5.6660   -0.4400 c3        1 MOL      0.407242
    117 C38         0.6330   -5.2290    0.9080 c3        1 MOL     -0.646777
    118 O18         0.7420   -6.8400   -0.9610 oh        1 MOL     -0.646319
    119 H53         2.1320   -4.1360   -0.9790 hn        1 MOL      0.117365
    120 H54        -0.3170   -5.0160   -2.3630 h1        1 MOL      0.121176
    121 H55        -0.8760   -6.0200   -0.2590 h1        1 MOL      0.022842
    122 H56         1.2720   -7.2020   -0.2410 ho        1 MOL      0.406877
    123 H57         1.7180   -5.2420    0.9920 hc        1 MOL      0.151985
    124 H58         0.4000   -4.1880    1.1620 hc        1 MOL      0.151985
    125 H59         0.1790   -5.8750    1.6550 hc        1 MOL      0.151985
    126 N11        -1.1450   -2.4850   -2.0200 n         1 MOL     -0.345137
    127 C39        -2.1320   -1.3210   -1.9190 c3        1 MOL     -0.058326
    128 C40        -3.5920   -1.7690   -1.6740 c         1 MOL      0.573470
    129 O19        -3.9470   -2.8660   -2.1310 o         1 MOL     -0.521096
    130 C41        -2.1450   -0.4220   -3.1180 c3        1 MOL      0.502960
    131 C42        -2.2700   -1.1730   -4.4810 c3        1 MOL     -0.482513
    132 O20        -1.0080    0.4050   -3.2860 oh        1 MOL     -0.543087
    133 H60        -0.6270   -2.5710   -2.8830 hn        1 MOL      0.227656
    134 H61        -1.8020   -0.6930   -1.0910 h1        1 MOL      0.080030
    135 H62        -2.9430    0.3100   -2.9780 h1        1 MOL     -0.011736
    136 H63        -0.9270    0.8850   -2.4680 ho        1 MOL      0.272243
    137 H64        -3.1050   -1.8820   -4.4140 hc        1 MOL      0.121334
    138 H65        -2.3640   -0.4630   -5.2920 hc        1 MOL      0.121334
    139 H66        -1.3760   -1.7800   -4.6390 hc        1 MOL      0.121334
    140 N12        -4.4950   -0.9330   -1.0430 n         1 MOL     -0.427516
    141 C43        -5.9250   -1.2570   -0.8610 c3        1 MOL     -0.081160
    142 C44        -6.5840   -0.8650    0.5000 c         1 MOL      0.671253
    143 O21        -7.6670   -1.2360    0.7040 o         1 MOL     -0.566000
    144 C45        -6.6560   -0.7510   -2.1390 c3        1 MOL     -0.457833
    145 C46        -7.9830   -1.5330   -2.4260 c3        1 MOL      0.235539
    146 C47        -8.5780   -1.2760   -3.7820 c3        1 MOL     -0.196704
    147 C48        -9.8130   -2.1130   -4.1090 c3        1 MOL      0.114501
    148 N13       -10.0910   -1.8910   -5.5370 n4        1 MOL     -0.248898
    149 H67        -4.2190   -0.0610   -0.6200 hn        1 MOL      0.160928
    150 H68        -5.9030   -2.3350   -0.6890 h1        1 MOL      0.103464
    151 H69        -6.0660   -1.0510   -3.0040 hc        1 MOL      0.167633
    152 H70        -6.9060    0.3160   -2.1480 hc        1 MOL      0.167633
    153 H71        -8.7190   -1.2810   -1.6610 hc        1 MOL      0.005233
    154 H72        -7.8710   -2.6050   -2.2400 hc        1 MOL      0.005233
    155 H73        -7.8080   -1.4530   -4.5390 hc        1 MOL      0.067497
    156 H74        -8.9580   -0.2560   -3.8250 hc        1 MOL      0.067497
    157 H75       -10.6020   -1.7190   -3.4690 hx        1 MOL      0.052692
    158 H76        -9.7080   -3.1620   -3.8520 hx        1 MOL      0.052692
    159 H77       -10.8810   -2.4190   -5.8760 hn        1 MOL      0.258747
    160 H78       -10.2750   -0.9160   -5.7420 hn        1 MOL      0.258747
    161 H79        -9.2280   -2.0550   -6.0390 hn        1 MOL      0.258747
    162 N14        -5.8550   -0.1370    1.3530 n         1 MOL     -0.289523
    163 C49        -6.3400    0.2710    2.6340 c3        1 MOL     -0.434340
    164 C50        -7.0310    1.6250    2.5620 c         1 MOL      0.618809
    165 O22        -6.4450    2.6260    2.1470 o         1 MOL     -0.472399
    166 C51        -5.2380    0.2750    3.6450 c3        1 MOL     -0.469026
    167 C52        -4.6580   -1.1240    3.7880 c3        1 MOL      0.589172
    168 C53        -3.7560   -1.1670    5.0170 c         1 MOL      0.579478
    169 O23        -4.2830   -1.5170    6.0940 o         1 MOL     -0.724947
    170 O24        -2.5980   -0.6920    4.9420 o         1 MOL     -0.724947
    171 H80        -4.8940    0.1430    1.1770 hn        1 MOL      0.385286
    172 H81        -7.1380   -0.3870    2.9890 h1        1 MOL      0.158717
    173 H82        -5.6700    0.5860    4.5990 hc        1 MOL      0.160758
    174 H83        -4.4770    1.0280    3.4670 hc        1 MOL      0.160758
    175 H84        -4.0790   -1.4500    2.9280 hc        1 MOL     -0.143708
    176 H85        -5.4030   -1.9070    3.9350 hc        1 MOL     -0.143708
    177 N15        -8.3160    1.7100    2.9660 n         1 MOL     -0.356996
    178 C54        -9.2240    2.7800    2.5900 c3        1 MOL     -0.066157
    179 H86        -8.7470    3.7430    2.7740 h1        1 MOL      0.064793
    180 H87        -9.4710    2.6930    1.5320 h1        1 MOL      0.064793
    181 H88       -10.1360    2.7080    3.1830 h1        1 MOL      0.064793
    182 H89        -8.7310    0.8710    3.3570 hn        1 MOL      0.278870
    183 Ca1        -0.2210   -1.5090    4.5510 Ca        1 MOL      1.645116
    184 O25        -1.7870   -3.2240    2.9040 oh        1 MOL     -0.768036
    185 H90        -2.5540   -3.7630    3.1290 ho        1 MOL      0.383701
    186 H91        -1.8870   -3.0610    1.9660 ho        1 MOL      0.383701
    187 O26         0.1190    1.1890    4.7540 oh        1 MOL     -0.768036
    188 H92        -0.4260    1.9390    4.5150 ho        1 MOL      0.383701
    189 H93         0.7270    1.5320    5.4130 ho        1 MOL      0.383701
    190 O27        -1.6760   -3.9020    6.2150 oh        1 MOL     -0.768036
    191 H94        -0.7820   -4.0240    6.5180 ho        1 MOL      0.383701
    192 H95        -2.1250   -3.4900    6.9560 ho        1 MOL      0.383701
    193 O28         0.8610   -3.8950    4.1150 oh        1 MOL     -0.768036
    194 H96         1.5360   -4.1610    3.4970 ho        1 MOL      0.383701
    195 H97         0.1410   -4.5110    3.9670 ho        1 MOL      0.383701
@<TRIPOS>BOND
     1    1    2 1   
     2    1    4 1   
     3    1    5 1   
     4    1    6 1   
     5    2    3 2   
     6    2    7 1   
     7    7    8 1   
     8    7   15 1   
     9    8    9 1   
    10    8   11 1   
    11    8   16 1   
    12    9   10 2   
    13    9   19 1   
    14   11   12 1   
    15   11   17 1   
    16   11   18 1   
    17   12   13 1   
    18   12   14 1   
    19   19   20 1   
    20   19   28 1   
    21   20   21 1   
    22   20   23 1   
    23   20   29 1   
    24   21   22 2   
    25   21   41 1   
    26   23   24 1   
    27   23   30 1   
    28   23   31 1   
    29   24   25 1   
    30   24   32 1   
    31   24   33 1   
    32   25   26 1   
    33   25   34 1   
    34   25   35 1   
    35   26   27 1   
    36   26   36 1   
    37   26   37 1   
    38   27   38 1   
    39   27   39 1   
    40   27   40 1   
    41   41   42 1   
    42   41   49 1   
    43   42   43 1   
    44   42   45 1   
    45   42   50 1   
    46   43   44 2   
    47   43   53 1   
    48   45   46 1   
    49   45   51 1   
    50   45   52 1   
    51   46   47 1   
    52   46   48 1   
    53   53   54 1   
    54   53   57 1   
    55   54   55 1   
    56   54   58 1   
    57   54   59 1   
    58   55   56 2   
    59   55   60 1   
    60   60   61 1   
    61   60   68 1   
    62   61   62 1   
    63   61   64 1   
    64   61   69 1   
    65   62   63 2   
    66   62   72 1   
    67   64   65 1   
    68   64   70 1   
    69   64   71 1   
    70   65   66 1   
    71   65   67 1   
    72   72   73 1   
    73   72   76 1   
    74   73   74 1   
    75   73   77 1   
    76   73   78 1   
    77   74   75 2   
    78   74   79 1   
    79   79   80 1   
    80   79   86 1   
    81   80   81 1   
    82   80   83 1   
    83   80   87 1   
    84   81   82 2   
    85   81   93 1   
    86   83   84 1   
    87   83   85 1   
    88   83   88 1   
    89   84   90 1   
    90   84   91 1   
    91   84   92 1   
    92   85   89 1   
    93   93   94 1   
    94   93  101 1   
    95   94   95 1   
    96   94   97 1   
    97   94  102 1   
    98   95   96 2   
    99   95  112 1   
   100   97   98 1   
   101   97   99 1   
   102   97  103 1   
   103   98  100 1   
   104   98  104 1   
   105   98  105 1   
   106   99  106 1   
   107   99  107 1   
   108   99  108 1   
   109  100  109 1   
   110  100  110 1   
   111  100  111 1   
   112  112  113 1   
   113  112  119 1   
   114  113  114 1   
   115  113  116 1   
   116  113  120 1   
   117  114  115 2   
   118  114  126 1   
   119  116  117 1   
   120  116  118 1   
   121  116  121 1   
   122  117  123 1   
   123  117  124 1   
   124  117  125 1   
   125  118  122 1   
   126  126  127 1   
   127  126  133 1   
   128  127  128 1   
   129  127  130 1   
   130  127  134 1   
   131  128  129 2   
   132  128  140 1   
   133  130  131 1   
   134  130  132 1   
   135  130  135 1   
   136  131  137 1   
   137  131  138 1   
   138  131  139 1   
   139  132  136 1   
   140  140  141 1   
   141  140  149 1   
   142  141  142 1   
   143  141  144 1   
   144  141  150 1   
   145  142  143 2   
   146  142  162 1   
   147  144  145 1   
   148  144  151 1   
   149  144  152 1   
   150  145  146 1   
   151  145  153 1   
   152  145  154 1   
   153  146  147 1   
   154  146  155 1   
   155  146  156 1   
   156  147  148 1   
   157  147  157 1   
   158  147  158 1   
   159  148  159 1   
   160  148  160 1   
   161  148  161 1   
   162  162  163 1   
   163  162  171 1   
   164  163  164 1   
   165  163  166 1   
   166  163  172 1   
   167  164  165 2   
   168  164  177 1   
   169  166  167 1   
   170  166  173 1   
   171  166  174 1   
   172  167  168 1   
   173  167  175 1   
   174  167  176 1   
   175  168  169 1   
   176  168  170 1   
   177  177  178 1   
   178  177  182 1   
   179  178  179 1   
   180  178  180 1   
   181  178  181 1   
   182  184  185 1   
   183  184  186 1   
   184  187  188 1   
   185  187  189 1   
   186  190  191 1   
   187  190  192 1   
   188  193  194 1   
   189  193  195 1   
@<TRIPOS>SUBSTRUCTURE
     1 MOL         1 TEMP              0 ****  ****    0 ROOT
