@<TRIPOS>MOLECULE
MOL
  182   178     1     0     0
SMALL
resp


@<TRIPOS>ATOM
      1 C1          1.4940   -6.6770    4.6820 c3        1 MOL     -0.484989
      2 C2          1.3080   -5.7020    3.5910 c         1 MOL      0.828471
      3 O1          0.3790   -5.7260    2.7610 o         1 MOL     -0.692805
      4 H1          0.8220   -6.4320    5.5050 hc        1 MOL      0.143543
      5 H2          1.2710   -7.6790    4.3170 hc        1 MOL      0.143543
      6 H3          2.5260   -6.6390    5.0330 hc        1 MOL      0.143543
      7 N1          2.1850   -4.7040    3.4300 n         1 MOL     -0.663927
      8 C3          2.3940   -3.9620    2.2120 c3        1 MOL      0.179088
      9 C4          2.5450   -4.8900    0.9700 c         1 MOL      0.390599
     10 O2          3.3830   -5.8000    0.9550 o         1 MOL     -0.537160
     11 C5          3.4650   -2.8180    2.3530 c3        1 MOL      0.040689
     12 C6          3.3700   -1.8510    1.2130 c         1 MOL      0.372808
     13 O3          3.8890   -0.7000    1.2630 o         1 MOL     -0.653777
     14 O4          2.7080   -2.2300    0.2010 o         1 MOL     -0.653777
     15 H4          2.9300   -4.6800    4.1170 hn        1 MOL      0.306403
     16 H5          1.4550   -3.4080    2.1410 h1        1 MOL      0.059642
     17 H6          4.4360   -3.2880    2.3680 hc        1 MOL      0.028289
     18 H7          3.3170   -2.2520    3.2830 hc        1 MOL      0.028289
     19 N2          1.7090   -4.6540   -0.0360 n         1 MOL     -0.085243
     20 C7          1.5640   -5.4130   -1.2960 c3        1 MOL     -0.080719
     21 C8          2.6910   -5.1220   -2.3730 c         1 MOL      0.486731
     22 O5          2.8100   -5.9600   -3.3000 o         1 MOL     -0.537761
     23 C9          0.1640   -5.3120   -1.8640 c3        1 MOL     -0.059022
     24 C10        -1.0320   -5.8940   -1.1090 c3        1 MOL      0.056479
     25 C11        -2.3150   -5.2730   -1.5450 c3        1 MOL     -0.190130
     26 C12        -3.5200   -5.5200   -0.5090 c3        1 MOL      0.094993
     27 N3         -3.6160   -6.8120    0.1800 n4        1 MOL     -0.489883
     28 H8          1.0610   -3.8950    0.1200 hn        1 MOL      0.179814
     29 H9          1.8350   -6.4310   -1.0300 h1        1 MOL      0.101179
     30 H10         0.1240   -5.8530   -2.8140 hc        1 MOL      0.050441
     31 H11        -0.0490   -4.2540   -2.0100 hc        1 MOL      0.050441
     32 H12        -0.8680   -5.7150   -0.0520 hc        1 MOL      0.004523
     33 H13        -1.0410   -6.9770   -1.2310 hc        1 MOL      0.004523
     34 H14        -2.5280   -5.6180   -2.5670 hc        1 MOL      0.071223
     35 H15        -2.2610   -4.1870   -1.6450 hc        1 MOL      0.071223
     36 H16        -4.3790   -5.1750   -1.0720 hx        1 MOL      0.079162
     37 H17        -3.3600   -4.7550    0.2570 hx        1 MOL      0.079162
     38 H18        -4.3040   -6.7380    0.9150 hn        1 MOL      0.351882
     39 H19        -3.9400   -7.4920   -0.5030 hn        1 MOL      0.351882
     40 H20        -2.7210   -7.0470    0.5650 hn        1 MOL      0.351882
     41 N4          3.5280   -4.1160   -2.1530 n         1 MOL     -0.359835
     42 C13         4.6960   -3.7700   -2.9540 c3        1 MOL      0.097346
     43 C14         5.9730   -3.3970   -2.1300 c         1 MOL      0.366941
     44 O6          7.0390   -3.6250   -2.5600 o         1 MOL     -0.482791
     45 C15         4.3140   -2.7270   -3.9690 c3        1 MOL     -0.325351
     46 C16         3.6760   -1.4520   -3.3720 c         1 MOL      0.742115
     47 O7          3.9460   -0.9700   -2.2450 o         1 MOL     -0.728799
     48 O8          2.7140   -0.8830   -4.0620 o         1 MOL     -0.728799
     49 H21         3.3820   -3.4990   -1.3630 hn        1 MOL      0.275607
     50 H22         4.9560   -4.6400   -3.5630 h1        1 MOL      0.091598
     51 H23         3.6170   -3.1310   -4.7120 hc        1 MOL      0.111496
     52 H24         5.2350   -2.3830   -4.4440 hc        1 MOL      0.111496
     53 N5          5.7430   -2.7540   -0.9740 n         1 MOL     -0.013439
     54 C17         6.7550   -2.3450   -0.0080 c3        1 MOL     -0.317491
     55 C18         7.3040   -0.9060   -0.1390 c         1 MOL      0.609365
     56 O9          8.4250   -0.5680    0.2570 o         1 MOL     -0.563194
     57 H25         4.7800   -2.6090   -0.7150 hn        1 MOL      0.047760
     58 H26         7.6550   -2.9110   -0.2560 h1        1 MOL      0.142542
     59 H27         6.4010   -2.4440    1.0150 h1        1 MOL      0.142542
     60 N6          6.5460   -0.0240   -0.8850 n         1 MOL     -0.324665
     61 C19         6.8790    1.3590   -1.1570 c3        1 MOL      0.132758
     62 C20         5.6580    2.2860   -0.8770 c         1 MOL      0.491921
     63 O10         4.5310    1.7590   -0.6650 o         1 MOL     -0.547712
     64 C21         7.5330    1.4050   -2.5320 c3        1 MOL     -0.328439
     65 C22         7.9040    2.7860   -3.0530 c         1 MOL      0.656096
     66 N7          8.7440    3.5120   -2.3090 n         1 MOL     -0.764870
     67 O11         7.3710    3.2710   -4.0680 o         1 MOL     -0.553288
     68 H28         5.7400   -0.3980   -1.3820 hn        1 MOL      0.264398
     69 H29         7.5770    1.7290   -0.4010 h1        1 MOL      0.034666
     70 H30         6.7960    0.9950   -3.2220 hc        1 MOL      0.110631
     71 H31         8.4440    0.8110   -2.5870 hc        1 MOL      0.110631
     72 H32         9.2370    3.0980   -1.5370 hn        1 MOL      0.357810
     73 H33         9.0360    4.4180   -2.6550 hn        1 MOL      0.357810
     74 N8          5.8230    3.6290   -0.9300 n         1 MOL     -0.423900
     75 C23         4.7450    4.6400   -0.6650 c3        1 MOL      0.049308
     76 C24         4.0090    4.6360    0.6560 c         1 MOL      0.506896
     77 O12         4.4890    4.1280    1.6640 o         1 MOL     -0.481318
     78 H34         6.7890    3.9190   -0.9100 hn        1 MOL      0.267148
     79 H35         4.0490    4.4260   -1.4810 h1        1 MOL      0.065453
     80 H36         4.9940    5.6710   -0.8950 h1        1 MOL      0.065453
     81 N9          2.8150    5.1700    0.6440 n         1 MOL     -0.493000
     82 C25         1.6530    4.8130    1.4240 c3        1 MOL      0.117352
     83 C26         1.4700    3.2550    1.5210 c         1 MOL      0.795494
     84 O13         2.0200    2.4860    0.8170 o         1 MOL     -0.580034
     85 C27         0.4640    5.4230    0.7200 c3        1 MOL     -0.253206
     86 C28         0.5570    6.9280    0.5490 ca        1 MOL      0.060833
     87 C29         0.7310    7.7980    1.6470 ca        1 MOL     -0.084558
     88 C30         0.5910    7.5070   -0.7450 ca        1 MOL     -0.084558
     89 C31         0.7360    9.1940    1.5120 ca        1 MOL     -0.323114
     90 C32         0.6570    8.8890   -0.8780 ca        1 MOL     -0.323114
     91 C33         0.7010    9.7680    0.2780 ca        1 MOL      0.386173
     92 O14         0.5420   11.1640    0.0980 oh        1 MOL     -0.480914
     93 H37         2.6230    5.5940   -0.2540 hn        1 MOL      0.226601
     94 H38         1.7860    5.2860    2.3930 h1        1 MOL      0.092881
     95 H39        -0.3850    5.2040    1.3660 hc        1 MOL      0.083001
     96 H40         0.2440    4.9330   -0.2200 hc        1 MOL      0.083001
     97 H41         0.7720    7.3050    2.6110 ha        1 MOL      0.113045
     98 H42         0.5190    6.9090   -1.6430 ha        1 MOL      0.113045
     99 H43         0.6950    9.7850    2.4140 ha        1 MOL      0.176509
    100 H44         0.6120    9.3580   -1.8590 ha        1 MOL      0.176509
    101 H45         0.6800   11.4360   -0.8150 ho        1 MOL      0.355073
    102 N10         0.7430    2.9220    2.6030 n         1 MOL     -0.855847
    103 C34         0.6750    1.5930    3.2840 c3        1 MOL      0.617348
    104 C35         0.2180    0.4170    2.3890 c         1 MOL      0.061626
    105 O15         0.9820   -0.0160    1.5440 o         1 MOL     -0.287796
    106 C36         1.9320    1.1840    4.0390 c3        1 MOL     -0.173047
    107 C37         1.7440   -0.0380    5.0010 c3        1 MOL     -0.097800
    108 C38         2.4110    2.3200    4.8980 c3        1 MOL     -0.154050
    109 C39         0.8950    0.1540    6.2010 c3        1 MOL     -0.525287
    110 H46         0.1140    3.6030    3.0000 hn        1 MOL      0.329585
    111 H47        -0.1250    1.7020    4.0170 h1        1 MOL      0.002632
    112 H48         2.6950    1.0230    3.2860 hc        1 MOL      0.130628
    113 H49         2.6710   -0.4830    5.3740 hc        1 MOL      0.106432
    114 H50         1.3140   -0.8550    4.4130 hc        1 MOL      0.106432
    115 H51         1.6500    2.5450    5.6490 hc        1 MOL      0.053360
    116 H52         3.3620    2.1220    5.3900 hc        1 MOL      0.053360
    117 H53         2.6180    3.2390    4.3490 hc        1 MOL      0.053360
    118 H54         0.5330   -0.8290    6.5160 hc        1 MOL      0.142413
    119 H55         1.5770    0.5260    6.9750 hc        1 MOL      0.142413
    120 H56         0.1350    0.8870    5.9390 hc        1 MOL      0.142413
    121 N11        -1.0510   -0.0310    2.4600 n         1 MOL     -0.307335
    122 C40        -1.4650   -1.2700    1.7260 c3        1 MOL      0.055513
    123 C41        -2.9600   -1.2410    1.3000 c         1 MOL      0.672980
    124 O16        -3.6030   -2.3020    1.0880 o         1 MOL     -0.568616
    125 C42        -1.2670   -2.5220    2.6800 c3        1 MOL      0.024220
    126 O17        -1.2770   -3.7290    1.9180 oh        1 MOL     -0.543149
    127 H57        -1.6480    0.4470    3.1290 hn        1 MOL      0.254027
    128 H58        -0.8790   -1.4810    0.8290 h1        1 MOL      0.032116
    129 H59        -2.0440   -2.5660    3.4450 h1        1 MOL      0.044080
    130 H60        -0.2890   -2.4570    3.1630 h1        1 MOL      0.044080
    131 H61        -0.6780   -4.3980    2.2720 ho        1 MOL      0.421644
    132 N12        -3.5670   -0.0540    1.1120 n         1 MOL     -0.656369
    133 C43        -4.9610    0.1210    0.7520 c3        1 MOL      0.229128
    134 C44        -5.2890    1.5220    0.0750 c         1 MOL      0.553958
    135 O18        -4.7140    2.5350    0.5440 o         1 MOL     -0.553083
    136 C45        -5.7630   -0.1240    2.0430 c3        1 MOL     -0.321435
    137 H62        -3.0860    0.8060    1.3170 hn        1 MOL      0.274711
    138 H63        -5.2290   -0.6750    0.0590 h1        1 MOL      0.067235
    139 H64        -5.5940    0.7370    2.6900 hc        1 MOL      0.102898
    140 H65        -6.8270   -0.1580    1.8160 hc        1 MOL      0.102898
    141 H66        -5.4410   -1.0460    2.5250 hc        1 MOL      0.102898
    142 N13        -6.2030    1.6070   -0.8910 n         1 MOL     -0.600208
    143 C46        -6.9740    0.5290   -1.5470 c3        1 MOL      0.247116
    144 C47        -8.3370    1.1030   -1.9660 c         1 MOL      0.503370
    145 O19        -8.4460    2.2660   -2.2170 o         1 MOL     -0.517455
    146 C48        -6.1000   -0.0170   -2.6780 c3        1 MOL     -0.237410
    147 H67        -6.1760    2.4660   -1.4120 hn        1 MOL      0.340878
    148 H68        -7.1740   -0.2320   -0.8040 h1        1 MOL     -0.003249
    149 H69        -5.2670   -0.5400   -2.2070 hc        1 MOL      0.069498
    150 H70        -6.6330   -0.7570   -3.2760 hc        1 MOL      0.069498
    151 H71        -5.8340    0.7550   -3.4010 hc        1 MOL      0.069498
    152 N14        -9.4380    0.4210   -2.2200 n         1 MOL     -0.401255
    153 C49        -9.9130   -0.7940   -1.4510 c3        1 MOL     -0.211866
    154 C50        -9.7460   -0.6300    0.0910 c         1 MOL      0.614760
    155 O20        -9.5300   -1.6310    0.7620 o         1 MOL     -0.585909
    156 C51       -11.3210   -1.0980   -1.8540 c3        1 MOL     -0.007983
    157 C52       -12.4530   -0.0970   -1.3700 c3        1 MOL     -0.239523
    158 C53       -12.4360    1.3010   -2.0140 c         1 MOL      0.753673
    159 O21       -12.6100    1.4180   -3.2510 o         1 MOL     -0.696900
    160 O22       -12.3720    2.3140   -1.2560 o         1 MOL     -0.696900
    161 H72       -10.0280    0.9010   -2.8850 hn        1 MOL      0.301521
    162 H73        -9.3300   -1.6260   -1.8520 h1        1 MOL      0.076859
    163 H74       -11.5540   -2.1390   -1.5960 hc        1 MOL      0.044554
    164 H75       -11.3420   -1.0950   -2.9400 hc        1 MOL      0.044554
    165 H76       -12.2490   -0.0240   -0.2990 hc        1 MOL      0.040427
    166 H77       -13.4090   -0.5960   -1.5010 hc        1 MOL      0.040427
    167 N15        -9.8890    0.6280    0.6160 n         1 MOL     -0.166096
    168 C54        -9.7980    1.0000    2.0630 c3        1 MOL     -0.296789
    169 H78        -9.2230    0.2430    2.5970 h1        1 MOL      0.117778
    170 H79        -9.3020    1.9660    2.1600 h1        1 MOL      0.117778
    171 H80       -10.8000    1.0620    2.4870 h1        1 MOL      0.117778
    172 H81       -10.0590    1.3390   -0.0810 hn        1 MOL      0.206482
    173 Ca1         2.3890    0.3100   -0.7420 Ca        1 MOL      1.695679
    174 O23         2.4550    1.5700   -2.8810 oh        1 MOL     -0.820590
    175 H82         2.6810    2.3890   -3.3310 ho        1 MOL      0.404408
    176 H83         2.6530    0.8820   -3.5180 ho        1 MOL      0.404408
    177 O24         0.4040   -1.1280   -1.7040 oh        1 MOL     -0.820590
    178 H84         0.2910   -1.8740   -2.3010 ho        1 MOL      0.404408
    179 H85        -0.4540   -0.6860   -1.7110 ho        1 MOL      0.404408
    180 O25        -0.1110    1.7050   -1.0490 oh        1 MOL     -0.820590
    181 H86        -0.7360    2.1290   -0.4530 ho        1 MOL      0.404408
    182 H87        -0.5110    1.8050   -1.9120 ho        1 MOL      0.404408
@<TRIPOS>BOND
     1    1    2 1   
     2    1    4 1   
     3    1    5 1   
     4    1    6 1   
     5    2    3 2   
     6    2    7 1   
     7    7    8 1   
     8    7   15 1   
     9    8    9 1   
    10    8   11 1   
    11    8   16 1   
    12    9   10 2   
    13    9   19 1   
    14   11   12 1   
    15   11   17 1   
    16   11   18 1   
    17   12   13 1   
    18   12   14 1   
    19   19   20 1   
    20   19   28 1   
    21   20   21 1   
    22   20   23 1   
    23   20   29 1   
    24   21   22 2   
    25   21   41 1   
    26   23   24 1   
    27   23   30 1   
    28   23   31 1   
    29   24   25 1   
    30   24   32 1   
    31   24   33 1   
    32   25   26 1   
    33   25   34 1   
    34   25   35 1   
    35   26   27 1   
    36   26   36 1   
    37   26   37 1   
    38   27   38 1   
    39   27   39 1   
    40   27   40 1   
    41   41   42 1   
    42   41   49 1   
    43   42   43 1   
    44   42   45 1   
    45   42   50 1   
    46   43   44 2   
    47   43   53 1   
    48   45   46 1   
    49   45   51 1   
    50   45   52 1   
    51   46   47 1   
    52   46   48 1   
    53   53   54 1   
    54   53   57 1   
    55   54   55 1   
    56   54   58 1   
    57   54   59 1   
    58   55   56 2   
    59   55   60 1   
    60   60   61 1   
    61   60   68 1   
    62   61   62 1   
    63   61   64 1   
    64   61   69 1   
    65   62   63 2   
    66   62   74 1   
    67   64   65 1   
    68   64   70 1   
    69   64   71 1   
    70   65   66 1   
    71   65   67 2   
    72   66   72 1   
    73   66   73 1   
    74   74   75 1   
    75   74   78 1   
    76   75   76 1   
    77   75   79 1   
    78   75   80 1   
    79   76   77 2   
    80   76   81 1   
    81   81   82 1   
    82   81   93 1   
    83   82   83 1   
    84   82   85 1   
    85   82   94 1   
    86   83   84 2   
    87   83  102 1   
    88   85   86 1   
    89   85   95 1   
    90   85   96 1   
    91   86   87 ar  
    92   86   88 ar  
    93   87   89 ar  
    94   87   97 1   
    95   88   90 ar  
    96   88   98 1   
    97   89   91 ar  
    98   89   99 1   
    99   90   91 ar  
   100   90  100 1   
   101   91   92 1   
   102   92  101 1   
   103  102  103 1   
   104  102  110 1   
   105  103  104 1   
   106  103  106 1   
   107  103  111 1   
   108  104  105 2   
   109  104  121 1   
   110  106  107 1   
   111  106  108 1   
   112  106  112 1   
   113  107  109 1   
   114  107  113 1   
   115  107  114 1   
   116  108  115 1   
   117  108  116 1   
   118  108  117 1   
   119  109  118 1   
   120  109  119 1   
   121  109  120 1   
   122  121  122 1   
   123  121  127 1   
   124  122  123 1   
   125  122  125 1   
   126  122  128 1   
   127  123  124 2   
   128  123  132 1   
   129  125  126 1   
   130  125  129 1   
   131  125  130 1   
   132  126  131 1   
   133  132  133 1   
   134  132  137 1   
   135  133  134 1   
   136  133  136 1   
   137  133  138 1   
   138  134  135 2   
   139  134  142 1   
   140  136  139 1   
   141  136  140 1   
   142  136  141 1   
   143  142  143 1   
   144  142  147 1   
   145  143  144 1   
   146  143  146 1   
   147  143  148 1   
   148  144  145 2   
   149  144  152 1   
   150  146  149 1   
   151  146  150 1   
   152  146  151 1   
   153  152  153 1   
   154  152  161 1   
   155  153  154 1   
   156  153  156 1   
   157  153  162 1   
   158  154  155 2   
   159  154  167 1   
   160  156  157 1   
   161  156  163 1   
   162  156  164 1   
   163  157  158 1   
   164  157  165 1   
   165  157  166 1   
   166  158  159 1   
   167  158  160 1   
   168  167  168 1   
   169  167  172 1   
   170  168  169 1   
   171  168  170 1   
   172  168  171 1   
   173  174  175 1   
   174  174  176 1   
   175  177  178 1   
   176  177  179 1   
   177  180  181 1   
   178  180  182 1   
@<TRIPOS>SUBSTRUCTURE
     1 MOL         1 TEMP              0 ****  ****    0 ROOT
