@<TRIPOS>MOLECULE
MOL
  195   189     1     0     0
SMALL
resp


@<TRIPOS>ATOM
      1 C1         -3.4930   -3.6950    3.7970 c3        1 MOL     -0.256635
      2 C2         -2.8470   -3.4730    2.4050 c         1 MOL      0.798663
      3 O1         -1.9310   -2.6710    2.3620 o         1 MOL     -0.590381
      4 H1         -3.8590   -2.7430    4.1820 hc        1 MOL      0.047423
      5 H2         -4.3250   -4.3930    3.7050 hc        1 MOL      0.047423
      6 H3         -2.7510   -4.1020    4.4830 hc        1 MOL      0.047423
      7 N1         -3.2460   -4.1130    1.3340 n         1 MOL     -0.676817
      8 C3         -2.8270   -3.8200   -0.0730 c3        1 MOL     -0.013682
      9 C4         -1.3430   -3.9340   -0.3190 c         1 MOL      0.648203
     10 O2         -0.8280   -3.2400   -1.2190 o         1 MOL     -0.530297
     11 C5         -3.4580   -2.4470   -0.3800 c3        1 MOL     -0.091973
     12 C6         -5.0180   -2.4770   -0.3860 c         1 MOL      0.686379
     13 O3         -5.5960   -3.5410   -0.7660 o         1 MOL     -0.769313
     14 O4         -5.6260   -1.5020    0.0720 o         1 MOL     -0.769313
     15 H4         -3.8700   -4.9080    1.3930 hn        1 MOL      0.307150
     16 H5         -3.2860   -4.5510   -0.7420 h1        1 MOL      0.120130
     17 H6         -3.2010   -2.1950   -1.4050 hc        1 MOL      0.060002
     18 H7         -3.1090   -1.6620    0.2910 hc        1 MOL      0.060002
     19 N2         -0.6500   -4.8270    0.4640 n         1 MOL     -0.631304
     20 C7          0.8370   -4.9560    0.5140 c3        1 MOL     -0.001114
     21 C8          1.3570   -5.6060   -0.7830 c         1 MOL      0.364131
     22 O5          0.7180   -6.3580   -1.5160 o         1 MOL     -0.529764
     23 C9          1.3480   -5.6140    1.8340 c3        1 MOL      0.258817
     24 C10         1.2170   -7.1700    1.7850 c3        1 MOL     -0.055476
     25 C11         0.6730   -5.0170    3.0860 c3        1 MOL      0.007581
     26 C12         1.7130   -7.8210    3.0620 c3        1 MOL     -0.070858
     27 H8         -1.1760   -5.2390    1.2200 hn        1 MOL      0.334035
     28 H9          1.2270   -3.9400    0.5030 h1        1 MOL      0.106612
     29 H10         2.3930   -5.3260    1.8960 hc        1 MOL      0.040963
     30 H11         1.9620   -7.4230    1.0260 hc        1 MOL      0.021187
     31 H12         0.2110   -7.5370    1.5810 hc        1 MOL      0.021187
     32 H13         1.3510   -5.1890    3.9270 hc        1 MOL     -0.018043
     33 H14         0.4900   -3.9540    2.9370 hc        1 MOL     -0.018043
     34 H15        -0.2930   -5.5230    3.1260 hc        1 MOL     -0.018043
     35 H16         0.9980   -7.7090    3.8740 hc        1 MOL      0.003109
     36 H17         1.7330   -8.8940    2.8570 hc        1 MOL      0.003109
     37 H18         2.7220   -7.4950    3.2880 hc        1 MOL      0.003109
     38 N3          2.6800   -5.4660   -1.1190 n         1 MOL     -0.310766
     39 C13         3.5760   -4.4520   -0.6070 c3        1 MOL     -0.011172
     40 C14         3.6310   -3.1670   -1.4690 c         1 MOL      0.485743
     41 O6          3.9410   -2.1080   -0.9450 o         1 MOL     -0.507602
     42 C15         4.9390   -4.9400   -0.3690 c3        1 MOL     -0.331469
     43 C16         5.5230   -5.9150   -1.4770 c         1 MOL      0.718582
     44 O7          5.8080   -5.5700   -2.6410 o         1 MOL     -0.710259
     45 O8          5.5680   -7.1100   -1.1380 o         1 MOL     -0.710259
     46 H19         2.9380   -5.9700   -1.9590 hn        1 MOL      0.293978
     47 H20         3.2420   -4.1020    0.3780 h1        1 MOL      0.047518
     48 H21         5.0690   -5.4330    0.5900 hc        1 MOL      0.076606
     49 H22         5.6180   -4.0870   -0.3970 hc        1 MOL      0.076606
     50 N4          3.1500   -3.2390   -2.7140 n         1 MOL     -0.333616
     51 C17         2.8510   -2.0230   -3.4660 c3        1 MOL     -0.068715
     52 C18         4.0680   -1.2650   -3.9870 c         1 MOL      0.515628
     53 O9          4.9550   -1.9120   -4.5660 o         1 MOL     -0.530179
     54 H23         2.9080   -4.1090   -3.1580 hn        1 MOL      0.311702
     55 H24         2.2170   -1.3370   -2.8900 h1        1 MOL      0.067862
     56 H25         2.2180   -2.2570   -4.3220 h1        1 MOL      0.067862
     57 N5          4.1430    0.0650   -3.8350 n         1 MOL     -0.538599
     58 C19         5.4370    0.7610   -4.0680 c3        1 MOL      0.197975
     59 C20         6.6800    0.3900   -3.1390 c         1 MOL      0.333516
     60 O10         7.7780    0.8960   -3.3040 o         1 MOL     -0.499602
     61 C21         5.3030    2.2400   -4.0840 c3        1 MOL     -0.290533
     62 C22         4.9220    2.9200   -2.7340 c         1 MOL      0.746231
     63 O11         4.8320    4.1900   -2.7740 o         1 MOL     -0.709626
     64 O12         4.7170    2.2470   -1.6610 o         1 MOL     -0.709626
     65 H26         3.3500    0.6300   -3.5490 hn        1 MOL      0.319625
     66 H27         5.7770    0.4070   -5.0470 h1        1 MOL      0.047547
     67 H28         4.6110    2.4860   -4.8890 hc        1 MOL      0.053462
     68 H29         6.2590    2.6270   -4.4320 hc        1 MOL      0.053462
     69 N6          6.4240   -0.4420   -2.0590 n         1 MOL     -0.078358
     70 C23         7.3360   -0.6580   -0.9950 c3        1 MOL     -0.360463
     71 C24         7.5700    0.4930   -0.0390 c         1 MOL      0.681253
     72 O13         8.1230    0.3150    1.0240 o         1 MOL     -0.637509
     73 H30         5.4940   -0.7600   -1.8430 hn        1 MOL      0.190798
     74 H31         8.2490   -0.9050   -1.5300 h1        1 MOL      0.133677
     75 H32         6.9820   -1.5310   -0.4610 h1        1 MOL      0.133677
     76 N7          7.0590    1.7030   -0.2610 n         1 MOL     -0.268793
     77 C25         7.2860    2.9460    0.6250 c3        1 MOL      0.151648
     78 C26         6.7260    2.8560    2.1280 c         1 MOL      0.532155
     79 O14         6.9540    3.7570    2.9230 o         1 MOL     -0.526861
     80 C27         8.6790    3.4980    0.4000 c3        1 MOL     -0.336400
     81 C28         8.8680    3.9150   -1.0710 c3        1 MOL      0.044204
     82 C29        10.2580    4.4550   -1.3760 c         1 MOL      0.689231
     83 N8         10.4240    5.0920   -2.4860 n         1 MOL     -0.839673
     84 O15        11.1760    4.2760   -0.6390 o         1 MOL     -0.590868
     85 H33         6.5250    1.8990   -1.0900 hn        1 MOL      0.155120
     86 H34         6.6130    3.6300    0.1040 h1        1 MOL      0.077270
     87 H35         9.4150    2.7550    0.7190 hc        1 MOL      0.095694
     88 H36         8.6600    4.4540    0.9170 hc        1 MOL      0.095694
     89 H37         8.1890    4.7250   -1.3260 hc        1 MOL      0.020057
     90 H38         8.6200    3.0850   -1.7350 hc        1 MOL      0.020057
     91 H39         9.7030    5.1000   -3.1930 hn        1 MOL      0.353106
     92 H40        11.3500    5.3880   -2.7860 hn        1 MOL      0.353106
     93 N9          5.9370    1.7830    2.4570 n         1 MOL     -0.639082
     94 C30         5.3810    1.4830    3.7760 c3        1 MOL      0.250890
     95 C31         3.8790    1.0640    3.9050 c         1 MOL      0.372336
     96 O16         3.3770    0.9150    5.0090 o         1 MOL     -0.531715
     97 C32         6.2570    0.3840    4.4020 c3        1 MOL      0.242964
     98 C33         6.2440    0.3060    5.8380 c3        1 MOL     -0.388404
     99 C34         5.9930   -0.9880    3.7540 c3        1 MOL     -0.388404
    100 H41         5.9780    0.9950    1.8310 hn        1 MOL      0.288502
    101 H42         5.4640    2.3780    4.4000 h1        1 MOL      0.053062
    102 H43         7.2900    0.7070    4.3710 hc        1 MOL      0.040871
    103 H44         6.4960    1.3100    6.1810 hc        1 MOL      0.082025
    104 H45         5.2770    0.0110    6.2580 hc        1 MOL      0.082025
    105 H46         6.9580   -0.3860    6.2810 hc        1 MOL      0.082025
    106 H47         6.3740   -0.9960    2.7320 hc        1 MOL      0.082025
    107 H48         6.6030   -1.7370    4.2640 hc        1 MOL      0.082025
    108 H49         4.9760   -1.3730    3.8310 hc        1 MOL      0.082025
    109 N10         3.1710    0.9780    2.8160 n         1 MOL     -0.334358
    110 C35         1.6750    0.8140    2.6930 c3        1 MOL      0.207567
    111 C36         1.0570    1.8380    1.7420 c         1 MOL      0.449221
    112 O17         1.6710    2.4430    0.8790 o         1 MOL     -0.456825
    113 C37         1.4330   -0.6210    2.0670 c3        1 MOL     -0.119412
    114 C38         2.1910   -1.6460    2.8400 c         1 MOL      0.540405
    115 N11         3.2300   -2.1890    2.2580 n         1 MOL     -0.554222
    116 O18         1.9600   -2.0090    3.9520 o         1 MOL     -0.545029
    117 H50         3.6440    1.1620    1.9430 hn        1 MOL      0.226209
    118 H51         1.2540    0.8550    3.6960 h1        1 MOL      0.062905
    119 H52         1.6830   -0.5170    1.0090 hc        1 MOL      0.059302
    120 H53         0.3830   -0.9090    2.1490 hc        1 MOL      0.059302
    121 H54         3.5090   -1.8060    1.3650 hn        1 MOL      0.283632
    122 H55         3.8170   -2.8150    2.7900 hn        1 MOL      0.283632
    123 N12        -0.2800    1.9040    1.7610 n         1 MOL     -0.562520
    124 C39        -1.0890    2.4460    0.7160 c3        1 MOL      0.333806
    125 C40        -2.3260    3.2350    1.2130 c         1 MOL      0.575766
    126 O19        -2.8860    3.0680    2.2940 o         1 MOL     -0.570541
    127 C41        -1.5250    1.2480   -0.2020 c3        1 MOL     -0.470370
    128 C42        -2.2870    1.6540   -1.4700 ca        1 MOL      0.276862
    129 C43        -3.5450    1.1070   -1.7240 ca        1 MOL     -0.325831
    130 C44        -1.5110    2.2730   -2.4990 ca        1 MOL     -0.325831
    131 C45        -4.0430    1.1710   -3.0700 ca        1 MOL     -0.082808
    132 C46        -2.0480    2.3680   -3.8030 ca        1 MOL     -0.082808
    133 C47        -3.3080    1.7340   -4.0820 ca        1 MOL      0.125027
    134 O20        -3.8560    1.8540   -5.3330 oh        1 MOL     -0.467766
    135 H56        -0.7210    1.4040    2.5240 hn        1 MOL      0.275510
    136 H57        -0.4040    3.0110    0.0810 h1        1 MOL      0.032286
    137 H58        -2.2000    0.5810    0.3270 hc        1 MOL      0.158053
    138 H59        -0.6510    0.7310   -0.5810 hc        1 MOL      0.158053
    139 H60        -4.1330    0.7010   -0.9140 ha        1 MOL      0.209285
    140 H61        -0.4930    2.5550   -2.3040 ha        1 MOL      0.209285
    141 H62        -4.9280    0.6840   -3.4440 ha        1 MOL      0.123311
    142 H63        -1.5170    2.7760   -4.6590 ha        1 MOL      0.123311
    143 H64        -4.6730    1.3520   -5.4020 ho        1 MOL      0.352570
    144 N13        -2.7640    4.2590    0.4090 n         1 MOL     -0.665771
    145 C48        -4.0210    5.0530    0.4990 c3        1 MOL      0.309954
    146 C49        -4.9290    4.6760   -0.7030 c         1 MOL      0.599623
    147 O21        -4.8220    5.2310   -1.8070 o         1 MOL     -0.538049
    148 C50        -3.6270    6.5530    0.4270 c3        1 MOL      0.163919
    149 C51        -4.7810    7.4930    0.7550 c3        1 MOL     -0.219589
    150 C52        -4.1770    8.9200    0.9620 c         1 MOL      0.674053
    151 O22        -4.1870    9.8280    0.0940 o         1 MOL     -0.676140
    152 O23        -3.7270    9.0410    2.1420 o         1 MOL     -0.676140
    153 H65        -2.2490    4.3600   -0.4560 hn        1 MOL      0.283590
    154 H66        -4.6460    4.9180    1.3720 h1        1 MOL      0.086592
    155 H67        -3.2510    6.7130   -0.5850 hc        1 MOL     -0.040001
    156 H68        -2.8770    6.6880    1.2030 hc        1 MOL     -0.040001
    157 H69        -5.2470    7.0860    1.6500 hc        1 MOL      0.003407
    158 H70        -5.4420    7.5550   -0.1110 hc        1 MOL      0.003407
    159 N14        -5.8430    3.7400   -0.5590 n         1 MOL     -0.632689
    160 C53        -5.9740    2.5990    0.4230 c3        1 MOL     -0.031463
    161 C54        -6.5950    2.9350    1.7820 c         1 MOL      0.422515
    162 O24        -7.2520    3.9640    1.9950 o         1 MOL     -0.498574
    163 C55        -6.8080    1.5220   -0.3070 c3        1 MOL      0.206040
    164 C56        -8.1200    2.0690   -0.8020 c3        1 MOL     -0.205913
    165 C57        -9.0960    0.9450   -1.2810 c         1 MOL      0.675937
    166 O25        -9.1460   -0.1620   -0.7530 o         1 MOL     -0.713820
    167 O26        -9.7890    1.2920   -2.2990 o         1 MOL     -0.713820
    168 H71        -6.4920    3.6920   -1.3380 hn        1 MOL      0.304420
    169 H72        -4.9710    2.2140    0.6020 h1        1 MOL      0.031201
    170 H73        -6.9850    0.7530    0.4430 hc        1 MOL     -0.051431
    171 H74        -6.2320    1.1500   -1.1600 hc        1 MOL     -0.051431
    172 H75        -7.9020    2.6270   -1.7140 hc        1 MOL      0.069486
    173 H76        -8.6230    2.6900   -0.0590 hc        1 MOL      0.069486
    174 N15        -6.0920    2.1100    2.7520 n         1 MOL     -0.190714
    175 C58        -6.2830    2.2480    4.2050 c3        1 MOL     -0.256767
    176 H77        -6.6140    3.2620    4.4320 h1        1 MOL      0.101154
    177 H78        -7.0360    1.5370    4.5420 h1        1 MOL      0.101154
    178 H79        -5.3410    2.0510    4.7160 h1        1 MOL      0.101154
    179 H80        -5.5040    1.3180    2.5280 hn        1 MOL      0.261095
    180 Ca1        -8.0550   -2.7140   -0.4620 Ca        1 MOL      1.747974
    181 O27        -7.1540   -1.7590   -2.9030 oh        1 MOL     -0.859103
    182 H81        -7.5200   -1.2380   -3.6140 ho        1 MOL      0.407623
    183 H82        -6.3930   -2.1950   -3.2920 ho        1 MOL      0.407623
    184 O28       -10.0870   -2.2200   -2.1850 oh        1 MOL     -0.859103
    185 H83       -10.1210   -1.2920   -1.9590 ho        1 MOL      0.407623
    186 H84       -10.5960   -2.2800   -2.9960 ho        1 MOL      0.407623
    187 O29        -8.3030   -4.6410   -2.0880 oh        1 MOL     -0.859103
    188 H85        -8.9250   -4.4920   -2.8000 ho        1 MOL      0.407623
    189 H86        -7.5580   -5.0900   -2.4980 ho        1 MOL      0.407623
    190 O30       -10.4790   -3.8260    0.4750 oh        1 MOL     -0.859103
    191 H87       -10.3970   -3.9440    1.4220 ho        1 MOL      0.407623
    192 H88       -11.4140   -3.7050    0.3270 ho        1 MOL      0.407623
    193 O31        -8.5320   -1.7640    2.1340 oh        1 MOL     -0.859103
    194 H89        -9.2230   -1.1770    2.4750 ho        1 MOL      0.407623
    195 H90        -7.9270   -1.8630    2.8570 ho        1 MOL      0.407623
@<TRIPOS>BOND
     1    1    2 1   
     2    1    4 1   
     3    1    5 1   
     4    1    6 1   
     5    2    3 2   
     6    2    7 1   
     7    7    8 1   
     8    7   15 1   
     9    8    9 1   
    10    8   11 1   
    11    8   16 1   
    12    9   10 2   
    13    9   19 1   
    14   11   12 1   
    15   11   17 1   
    16   11   18 1   
    17   12   13 1   
    18   12   14 1   
    19   19   20 1   
    20   19   27 1   
    21   20   21 1   
    22   20   23 1   
    23   20   28 1   
    24   21   22 2   
    25   21   38 1   
    26   23   24 1   
    27   23   25 1   
    28   23   29 1   
    29   24   26 1   
    30   24   30 1   
    31   24   31 1   
    32   25   32 1   
    33   25   33 1   
    34   25   34 1   
    35   26   35 1   
    36   26   36 1   
    37   26   37 1   
    38   38   39 1   
    39   38   46 1   
    40   39   40 1   
    41   39   42 1   
    42   39   47 1   
    43   40   41 2   
    44   40   50 1   
    45   42   43 1   
    46   42   48 1   
    47   42   49 1   
    48   43   44 1   
    49   43   45 1   
    50   50   51 1   
    51   50   54 1   
    52   51   52 1   
    53   51   55 1   
    54   51   56 1   
    55   52   53 2   
    56   52   57 1   
    57   57   58 1   
    58   57   65 1   
    59   58   59 1   
    60   58   61 1   
    61   58   66 1   
    62   59   60 2   
    63   59   69 1   
    64   61   62 1   
    65   61   67 1   
    66   61   68 1   
    67   62   63 1   
    68   62   64 1   
    69   69   70 1   
    70   69   73 1   
    71   70   71 1   
    72   70   74 1   
    73   70   75 1   
    74   71   72 2   
    75   71   76 1   
    76   76   77 1   
    77   76   85 1   
    78   77   78 1   
    79   77   80 1   
    80   77   86 1   
    81   78   79 2   
    82   78   93 1   
    83   80   81 1   
    84   80   87 1   
    85   80   88 1   
    86   81   82 1   
    87   81   89 1   
    88   81   90 1   
    89   82   83 1   
    90   82   84 2   
    91   83   91 1   
    92   83   92 1   
    93   93   94 1   
    94   93  100 1   
    95   94   95 1   
    96   94   97 1   
    97   94  101 1   
    98   95   96 2   
    99   95  109 1   
   100   97   98 1   
   101   97   99 1   
   102   97  102 1   
   103   98  103 1   
   104   98  104 1   
   105   98  105 1   
   106   99  106 1   
   107   99  107 1   
   108   99  108 1   
   109  109  110 1   
   110  109  117 1   
   111  110  111 1   
   112  110  113 1   
   113  110  118 1   
   114  111  112 2   
   115  111  123 1   
   116  113  114 1   
   117  113  119 1   
   118  113  120 1   
   119  114  115 1   
   120  114  116 2   
   121  115  121 1   
   122  115  122 1   
   123  123  124 1   
   124  123  135 1   
   125  124  125 1   
   126  124  127 1   
   127  124  136 1   
   128  125  126 2   
   129  125  144 1   
   130  127  128 1   
   131  127  137 1   
   132  127  138 1   
   133  128  129 ar  
   134  128  130 ar  
   135  129  131 ar  
   136  129  139 1   
   137  130  132 ar  
   138  130  140 1   
   139  131  133 ar  
   140  131  141 1   
   141  132  133 ar  
   142  132  142 1   
   143  133  134 1   
   144  134  143 1   
   145  144  145 1   
   146  144  153 1   
   147  145  146 1   
   148  145  148 1   
   149  145  154 1   
   150  146  147 2   
   151  146  159 1   
   152  148  149 1   
   153  148  155 1   
   154  148  156 1   
   155  149  150 1   
   156  149  157 1   
   157  149  158 1   
   158  150  151 1   
   159  150  152 1   
   160  159  160 1   
   161  159  168 1   
   162  160  161 1   
   163  160  163 1   
   164  160  169 1   
   165  161  162 2   
   166  161  174 1   
   167  163  164 1   
   168  163  170 1   
   169  163  171 1   
   170  164  165 1   
   171  164  172 1   
   172  164  173 1   
   173  165  166 1   
   174  165  167 1   
   175  174  175 1   
   176  174  179 1   
   177  175  176 1   
   178  175  177 1   
   179  175  178 1   
   180  181  182 1   
   181  181  183 1   
   182  184  185 1   
   183  184  186 1   
   184  187  188 1   
   185  187  189 1   
   186  190  191 1   
   187  190  192 1   
   188  193  194 1   
   189  193  195 1   
@<TRIPOS>SUBSTRUCTURE
     1 MOL         1 TEMP              0 ****  ****    0 ROOT
