@<TRIPOS>MOLECULE
MOL
  189   185     1     0     0
SMALL
resp


@<TRIPOS>ATOM
      1 C1          1.4860    8.2650   -1.6160 c3        1 MOL     -0.283255
      2 C2          1.5180    6.7320   -1.6390 c         1 MOL      0.667888
      3 O1          1.0540    6.0900   -2.5860 o         1 MOL     -0.561427
      4 H1          1.2330    8.6360   -2.6090 hc        1 MOL      0.071808
      5 H2          0.7380    8.6030   -0.9010 hc        1 MOL      0.071808
      6 H3          2.4660    8.6450   -1.3250 hc        1 MOL      0.071808
      7 N1          1.9840    6.1590   -0.4830 n         1 MOL     -0.423839
      8 C3          2.3140    4.7530   -0.4320 c3        1 MOL     -0.293424
      9 C4          0.9490    4.0010   -0.2560 c         1 MOL      0.611431
     10 O2          0.9860    2.7620   -0.3880 o         1 MOL     -0.523846
     11 C5          3.2650    4.4240    0.7810 c3        1 MOL      0.059258
     12 C6          2.7820    4.7990    2.1720 c         1 MOL      0.614782
     13 O3          2.2280    5.9550    2.3790 o         1 MOL     -0.681795
     14 O4          2.8170    3.9130    3.0480 o         1 MOL     -0.681795
     15 H4          2.0230    6.7450    0.3280 hn        1 MOL      0.241029
     16 H5          2.7670    4.4560   -1.3760 h1        1 MOL      0.199827
     17 H6          4.2480    4.8850    0.7140 hc        1 MOL      0.026919
     18 H7          3.6120    3.3990    0.7200 hc        1 MOL      0.026919
     19 N2         -0.1540    4.6850    0.0960 n         1 MOL     -0.572190
     20 C7         -1.4390    4.1400    0.4330 c3        1 MOL      0.312555
     21 C8         -2.3590    3.8300   -0.7760 c         1 MOL      0.387540
     22 O5         -2.5730    4.6160   -1.6950 o         1 MOL     -0.522936
     23 C9         -2.2090    5.0450    1.3680 c3        1 MOL     -0.275774
     24 C10        -1.3940    5.7010    2.4710 c3        1 MOL      0.034722
     25 C11        -1.0830    4.7450    3.6130 c3        1 MOL     -0.104208
     26 C12        -0.5770    5.4010    4.8850 c3        1 MOL      0.042534
     27 N3          0.8790    5.6770    4.8080 n4        1 MOL     -0.125949
     28 H8         -0.0100    5.6680    0.2800 hn        1 MOL      0.315414
     29 H9         -1.1400    3.1820    0.8570 h1        1 MOL      0.080690
     30 H10        -3.1310    4.5420    1.6870 hc        1 MOL      0.092762
     31 H11        -2.5580    5.7690    0.6430 hc        1 MOL      0.092762
     32 H12        -1.9740    6.5260    2.8980 hc        1 MOL      0.014560
     33 H13        -0.4940    6.1900    2.0900 hc        1 MOL      0.014560
     34 H14        -0.3570    4.0940    3.1290 hc        1 MOL      0.086986
     35 H15        -1.9590    4.1020    3.7470 hc        1 MOL      0.086986
     36 H16        -0.7050    4.7710    5.7650 hx        1 MOL      0.049713
     37 H17        -1.0880    6.3290    5.0940 hx        1 MOL      0.049713
     38 H18         1.0780    6.3430    4.0790 hn        1 MOL      0.241438
     39 H19         1.2210    6.1150    5.6520 hn        1 MOL      0.241438
     40 H20         1.4540    4.8670    4.6490 hn        1 MOL      0.241438
     41 N4         -3.0460    2.7110   -0.8220 n         1 MOL     -0.364146
     42 C13        -3.0520    1.4920    0.0970 c3        1 MOL     -0.071649
     43 C14        -3.3050    1.7270    1.6060 c         1 MOL      0.498918
     44 O6         -2.3810    1.7060    2.4240 o         1 MOL     -0.602064
     45 C15        -1.7870    0.5620   -0.0540 c3        1 MOL     -0.254078
     46 C16        -1.6860   -0.1610   -1.3870 c         1 MOL      0.791665
     47 O7         -2.5570   -0.0780   -2.2690 o         1 MOL     -0.750713
     48 O8         -0.5760   -0.7300   -1.6590 o         1 MOL     -0.750713
     49 H21        -3.6140    2.5750   -1.6440 hn        1 MOL      0.278680
     50 H22        -3.8410    0.8260   -0.2510 h1        1 MOL      0.149844
     51 H23        -1.6970   -0.2620    0.6510 hc        1 MOL      0.094496
     52 H24        -0.8870    1.1780   -0.0080 hc        1 MOL      0.094496
     53 N5         -4.5480    1.7900    2.0270 n         1 MOL     -0.321013
     54 C17        -5.7360    1.8060    1.2000 c3        1 MOL     -0.040002
     55 C18        -7.0810    2.0550    1.9940 c         1 MOL      0.531904
     56 O9         -7.1420    2.4570    3.1470 o         1 MOL     -0.574013
     57 H25        -4.7160    2.0480    2.9910 hn        1 MOL      0.268278
     58 H26        -5.9580    0.8460    0.7450 h1        1 MOL      0.070602
     59 H27        -5.6240    2.5910    0.4530 h1        1 MOL      0.070602
     60 N6         -8.2360    1.7520    1.4430 n         1 MOL     -0.336417
     61 C19        -8.4680    1.3060    0.1000 c3        1 MOL     -0.048761
     62 C20        -8.2570   -0.2540   -0.1990 c         1 MOL      0.606011
     63 O10        -8.8850   -1.1100    0.4220 o         1 MOL     -0.501609
     64 C21        -9.8550    1.8320   -0.2790 c3        1 MOL     -0.222047
     65 C22       -10.2680    1.7060   -1.7730 c         1 MOL      0.700301
     66 O11        -9.4390    2.0840   -2.6320 o         1 MOL     -0.641446
     67 O12       -11.4080    1.2620   -2.1040 o         1 MOL     -0.641446
     68 H28        -9.0150    1.8490    2.0870 hn        1 MOL      0.290193
     69 H29        -7.8310    1.8650   -0.5890 h1        1 MOL      0.027701
     70 H30        -9.9000    2.8910   -0.0360 hc        1 MOL      0.061120
     71 H31       -10.5770    1.2700    0.3060 hc        1 MOL      0.061120
     72 N7         -7.2000   -0.6480   -0.9660 n         1 MOL     -0.421743
     73 C23        -6.7580   -2.0120   -1.2410 c3        1 MOL     -0.227400
     74 C24        -6.0240   -2.6910   -0.0510 c         1 MOL      0.680718
     75 O13        -5.7990   -2.0670    1.0020 o         1 MOL     -0.527242
     76 H32        -6.5870   -0.0250   -1.4630 hn        1 MOL      0.254560
     77 H33        -6.0500   -2.0010   -2.0660 h1        1 MOL      0.139582
     78 H34        -7.6220   -2.5930   -1.5620 h1        1 MOL      0.139582
     79 N8         -5.6150   -3.9200   -0.3470 n         1 MOL     -0.569013
     80 C25        -4.6520   -4.6660    0.4410 c3        1 MOL      0.058034
     81 C26        -3.2070   -4.1530    0.4600 c         1 MOL      0.153002
     82 O14        -2.6460   -3.8010   -0.5910 o         1 MOL     -0.271213
     83 C27        -4.7280   -6.1100   -0.0440 c3        1 MOL      0.349748
     84 C28        -3.8340   -6.9670    0.7850 c3        1 MOL     -0.535980
     85 O15        -4.4250   -6.3880   -1.3930 oh        1 MOL     -0.605360
     86 H35        -5.8620   -4.2640   -1.2660 hn        1 MOL      0.287183
     87 H36        -5.0140   -4.7420    1.4720 h1        1 MOL      0.086669
     88 H37        -5.7700   -6.4030    0.1050 h1        1 MOL      0.007295
     89 H38        -4.8870   -7.1960   -1.6180 ho        1 MOL      0.404245
     90 H39        -4.0310   -8.0200    0.5810 hc        1 MOL      0.146225
     91 H40        -2.7990   -6.7930    0.5130 hc        1 MOL      0.146225
     92 H41        -3.8650   -6.6810    1.8360 hc        1 MOL      0.146225
     93 N9         -2.6690   -3.9750    1.6830 n         1 MOL     -0.126708
     94 C29        -1.2660   -3.5230    1.8440 c3        1 MOL     -0.078858
     95 C30        -0.2850   -4.5870    1.4140 c         1 MOL      0.284464
     96 O16        -0.1260   -5.6410    2.0210 o         1 MOL     -0.498940
     97 C31        -1.0360   -2.9890    3.2410 c3        1 MOL      0.144733
     98 C32        -1.5960   -1.6110    3.5880 c3        1 MOL     -0.117921
     99 C33         0.4170   -3.0870    3.7230 c3        1 MOL     -0.066904
    100 C34        -3.0720   -1.4980    3.3180 c3        1 MOL     -0.184444
    101 H42        -3.1090   -4.2150    2.5630 hn        1 MOL      0.222397
    102 H43        -1.1990   -2.7060    1.1300 h1        1 MOL      0.049116
    103 H44        -1.5720   -3.7030    3.8600 hc        1 MOL      0.023636
    104 H45        -1.0780   -0.8210    3.0460 hc        1 MOL      0.055869
    105 H46        -1.4880   -1.4490    4.6640 hc        1 MOL      0.055869
    106 H47         0.4230   -2.5890    4.6940 hc        1 MOL      0.004923
    107 H48         0.7380   -4.0950    4.0100 hc        1 MOL      0.004923
    108 H49         1.1350   -2.5730    3.0870 hc        1 MOL      0.004923
    109 H50        -3.4720   -0.6380    3.8740 hc        1 MOL      0.058039
    110 H51        -3.2080   -1.4160    2.2450 hc        1 MOL      0.058039
    111 H52        -3.6210   -2.2910    3.8180 hc        1 MOL      0.058039
    112 N10         0.2910   -4.3580    0.2340 n         1 MOL     -0.071025
    113 C35         1.3190   -5.1870   -0.4000 c3        1 MOL     -0.082704
    114 C36         2.7520   -4.8600    0.0940 c         1 MOL      0.280912
    115 O17         3.6010   -5.7890    0.0280 o         1 MOL     -0.515730
    116 C37         1.1800   -5.3720   -1.9290 c3        1 MOL      0.306932
    117 C38         1.2250   -3.9920   -2.6100 c3        1 MOL     -0.020279
    118 O18        -0.0050   -6.0760   -2.3160 oh        1 MOL     -0.567145
    119 H53        -0.0730   -3.5750   -0.2910 hn        1 MOL      0.122718
    120 H54         1.0770   -6.1990   -0.0680 h1        1 MOL      0.099535
    121 H55         2.1150   -5.8660   -2.1840 h1        1 MOL      0.009477
    122 H56         0.1500   -6.9600   -1.9830 ho        1 MOL      0.363105
    123 H57         1.3050   -3.9960   -3.7060 hc        1 MOL      0.013569
    124 H58         0.3050   -3.4900   -2.3130 hc        1 MOL      0.013569
    125 H59         2.0890   -3.4290   -2.2520 hc        1 MOL      0.013569
    126 N11         3.0860   -3.6850    0.4820 n         1 MOL     -0.055553
    127 C39         4.3440   -3.1340    1.0050 c3        1 MOL     -0.331176
    128 C40         5.3560   -2.9510   -0.1420 c         1 MOL      0.403857
    129 O19         5.5580   -3.8830   -0.9280 o         1 MOL     -0.391933
    130 C41         4.9100   -3.9520    2.1420 c3        1 MOL      0.721474
    131 C42         3.9300   -4.5290    3.2380 c3        1 MOL     -0.409351
    132 O20         5.9120   -3.3910    2.8960 oh        1 MOL     -0.698089
    133 H60         2.3230   -3.0290    0.3900 hn        1 MOL      0.200713
    134 H61         4.1830   -2.1870    1.5190 h1        1 MOL      0.097050
    135 H62         5.3250   -4.8660    1.7270 h1        1 MOL     -0.058626
    136 H63         6.7360   -3.7480    2.5490 ho        1 MOL      0.353090
    137 H64         3.2780   -3.7240    3.5690 hc        1 MOL      0.108145
    138 H65         3.2190   -5.3040    2.9280 hc        1 MOL      0.108145
    139 H66         4.5190   -4.9760    4.0360 hc        1 MOL      0.108145
    140 N12         6.1960   -1.8490   -0.0830 n         1 MOL     -0.263864
    141 C43         7.2700   -1.4840   -0.9660 c3        1 MOL     -0.043347
    142 C44         6.8860   -0.3190   -1.8940 c         1 MOL      0.561842
    143 O21         7.4030   -0.2080   -3.0250 o         1 MOL     -0.542600
    144 C45         8.6150   -1.1850   -0.1760 c3        1 MOL     -0.136649
    145 C46         8.5340   -0.1960    1.0290 c3        1 MOL     -0.198686
    146 C47         8.2880   -0.9140    2.4260 c3        1 MOL      0.045589
    147 C48         9.5810   -1.2080    3.3020 c3        1 MOL     -0.057038
    148 N13         9.1810   -1.7160    4.6220 n4        1 MOL     -0.132431
    149 H67         6.0890   -1.3120    0.7650 hn        1 MOL      0.214552
    150 H68         7.4860   -2.4330   -1.4450 h1        1 MOL      0.104829
    151 H69         9.3400   -0.8350   -0.9020 hc        1 MOL      0.071361
    152 H70         8.9370   -2.1510    0.2130 hc        1 MOL      0.071361
    153 H71         7.7800    0.5720    0.8830 hc        1 MOL      0.084011
    154 H72         9.4670    0.3590    1.0960 hc        1 MOL      0.084011
    155 H73         7.6530   -1.7940    2.3040 hc        1 MOL      0.021285
    156 H74         7.6350   -0.2900    3.0400 hc        1 MOL      0.021285
    157 H75        10.1370   -0.2740    3.3490 hx        1 MOL      0.092747
    158 H76        10.2080   -1.9330    2.7850 hx        1 MOL      0.092747
    159 H77         9.0850   -2.7160    4.5450 hn        1 MOL      0.219232
    160 H78         9.8280   -1.5840    5.3790 hn        1 MOL      0.219232
    161 H79         8.2750   -1.3880    4.9160 hn        1 MOL      0.219232
    162 N14         5.9940    0.5550   -1.5230 n         1 MOL     -0.306895
    163 C49         5.2180    1.5250   -2.2950 c3        1 MOL      0.108031
    164 C50         6.0670    2.8540   -2.2030 c         1 MOL      0.196869
    165 O22         5.6670    3.9040   -1.7390 o         1 MOL     -0.413577
    166 C51         3.7740    1.7410   -1.7450 c3        1 MOL      0.036112
    167 C52         2.9760    0.4670   -1.9570 c3        1 MOL      0.059300
    168 C53         2.8550   -0.0710   -3.4060 c         1 MOL      0.482699
    169 O23         1.8050    0.2150   -4.0360 o         1 MOL     -0.691124
    170 O24         3.7430   -0.8040   -3.9200 o         1 MOL     -0.691124
    171 H80         5.6720    0.3770   -0.5810 hn        1 MOL      0.204988
    172 H81         5.1590    1.2440   -3.3450 h1        1 MOL      0.177989
    173 H82         3.3360    2.6100   -2.2280 hc        1 MOL     -0.005945
    174 H83         3.8670    1.9810   -0.6840 hc        1 MOL     -0.005945
    175 H84         1.9420    0.5330   -1.6040 hc        1 MOL     -0.029703
    176 H85         3.3220   -0.3630   -1.3350 hc        1 MOL     -0.029703
    177 N15         7.3190    2.7050   -2.6720 n         1 MOL     -0.232005
    178 C54         8.2640    3.7840   -2.8470 c3        1 MOL      0.038654
    179 H86         8.3980    3.9810   -3.9100 h1        1 MOL      0.031439
    180 H87         7.8870    4.6820   -2.3570 h1        1 MOL      0.031439
    181 H88         9.2220    3.5040   -2.4070 h1        1 MOL      0.031439
    182 H89         7.4630    1.8020   -3.1120 hn        1 MOL      0.189546
    183 Ca1        -0.6740   -0.1290   -4.1750 Ca        1 MOL      1.775226
    184 O25        -1.7420   -2.5190   -4.4920 oh        1 MOL     -1.011353
    185 H90        -1.4900   -2.7760   -5.3790 ho        1 MOL      0.481674
    186 H91        -2.1290   -3.3080   -4.1160 ho        1 MOL      0.481674
    187 O26        -0.1730    2.1070   -2.6440 oh        1 MOL     -1.011353
    188 H92        -0.7120    2.8920   -2.5260 ho        1 MOL      0.481674
    189 H93         0.4560    2.1460   -1.9200 ho        1 MOL      0.481674
@<TRIPOS>BOND
     1    1    2 1   
     2    1    4 1   
     3    1    5 1   
     4    1    6 1   
     5    2    3 2   
     6    2    7 1   
     7    7    8 1   
     8    7   15 1   
     9    8    9 1   
    10    8   11 1   
    11    8   16 1   
    12    9   10 2   
    13    9   19 1   
    14   11   12 1   
    15   11   17 1   
    16   11   18 1   
    17   12   13 1   
    18   12   14 1   
    19   19   20 1   
    20   19   28 1   
    21   20   21 1   
    22   20   23 1   
    23   20   29 1   
    24   21   22 2   
    25   21   41 1   
    26   23   24 1   
    27   23   30 1   
    28   23   31 1   
    29   24   25 1   
    30   24   32 1   
    31   24   33 1   
    32   25   26 1   
    33   25   34 1   
    34   25   35 1   
    35   26   27 1   
    36   26   36 1   
    37   26   37 1   
    38   27   38 1   
    39   27   39 1   
    40   27   40 1   
    41   41   42 1   
    42   41   49 1   
    43   42   43 1   
    44   42   45 1   
    45   42   50 1   
    46   43   44 2   
    47   43   53 1   
    48   45   46 1   
    49   45   51 1   
    50   45   52 1   
    51   46   47 1   
    52   46   48 1   
    53   53   54 1   
    54   53   57 1   
    55   54   55 1   
    56   54   58 1   
    57   54   59 1   
    58   55   56 2   
    59   55   60 1   
    60   60   61 1   
    61   60   68 1   
    62   61   62 1   
    63   61   64 1   
    64   61   69 1   
    65   62   63 2   
    66   62   72 1   
    67   64   65 1   
    68   64   70 1   
    69   64   71 1   
    70   65   66 1   
    71   65   67 1   
    72   72   73 1   
    73   72   76 1   
    74   73   74 1   
    75   73   77 1   
    76   73   78 1   
    77   74   75 2   
    78   74   79 1   
    79   79   80 1   
    80   79   86 1   
    81   80   81 1   
    82   80   83 1   
    83   80   87 1   
    84   81   82 2   
    85   81   93 1   
    86   83   84 1   
    87   83   85 1   
    88   83   88 1   
    89   84   90 1   
    90   84   91 1   
    91   84   92 1   
    92   85   89 1   
    93   93   94 1   
    94   93  101 1   
    95   94   95 1   
    96   94   97 1   
    97   94  102 1   
    98   95   96 2   
    99   95  112 1   
   100   97   98 1   
   101   97   99 1   
   102   97  103 1   
   103   98  100 1   
   104   98  104 1   
   105   98  105 1   
   106   99  106 1   
   107   99  107 1   
   108   99  108 1   
   109  100  109 1   
   110  100  110 1   
   111  100  111 1   
   112  112  113 1   
   113  112  119 1   
   114  113  114 1   
   115  113  116 1   
   116  113  120 1   
   117  114  115 2   
   118  114  126 1   
   119  116  117 1   
   120  116  118 1   
   121  116  121 1   
   122  117  123 1   
   123  117  124 1   
   124  117  125 1   
   125  118  122 1   
   126  126  127 1   
   127  126  133 1   
   128  127  128 1   
   129  127  130 1   
   130  127  134 1   
   131  128  129 2   
   132  128  140 1   
   133  130  131 1   
   134  130  132 1   
   135  130  135 1   
   136  131  137 1   
   137  131  138 1   
   138  131  139 1   
   139  132  136 1   
   140  140  141 1   
   141  140  149 1   
   142  141  142 1   
   143  141  144 1   
   144  141  150 1   
   145  142  143 2   
   146  142  162 1   
   147  144  145 1   
   148  144  151 1   
   149  144  152 1   
   150  145  146 1   
   151  145  153 1   
   152  145  154 1   
   153  146  147 1   
   154  146  155 1   
   155  146  156 1   
   156  147  148 1   
   157  147  157 1   
   158  147  158 1   
   159  148  159 1   
   160  148  160 1   
   161  148  161 1   
   162  162  163 1   
   163  162  171 1   
   164  163  164 1   
   165  163  166 1   
   166  163  172 1   
   167  164  165 2   
   168  164  177 1   
   169  166  167 1   
   170  166  173 1   
   171  166  174 1   
   172  167  168 1   
   173  167  175 1   
   174  167  176 1   
   175  168  169 1   
   176  168  170 1   
   177  177  178 1   
   178  177  182 1   
   179  178  179 1   
   180  178  180 1   
   181  178  181 1   
   182  184  185 1   
   183  184  186 1   
   184  187  188 1   
   185  187  189 1   
@<TRIPOS>SUBSTRUCTURE
     1 MOL         1 TEMP              0 ****  ****    0 ROOT
