@<TRIPOS>MOLECULE
MOL
  192   187     1     0     0
SMALL
resp


@<TRIPOS>ATOM
      1 C1          3.7500   -7.0160    0.2440 c3        1 MOL     -0.323999
      2 C2          3.5870   -5.5450    0.6910 c         1 MOL      0.609940
      3 O1          2.9020   -5.2040    1.6390 o         1 MOL     -0.565178
      4 H1          3.1490   -7.6600    0.8870 hc        1 MOL      0.086769
      5 H2          3.4160   -7.1220   -0.7880 hc        1 MOL      0.086769
      6 H3          4.7990   -7.3050    0.3190 hc        1 MOL      0.086769
      7 N1          3.9590   -4.6080   -0.1590 n         1 MOL     -0.370568
      8 C3          3.7100   -3.1970    0.0290 c3        1 MOL      0.001438
      9 C4          2.2020   -2.7820   -0.1500 c         1 MOL      0.690541
     10 O2          1.6770   -2.0860    0.6890 o         1 MOL     -0.556410
     11 C5          4.6600   -2.4990   -0.9980 c3        1 MOL     -0.247031
     12 C6          4.6490   -3.0930   -2.4100 c         1 MOL      0.717738
     13 O3          4.1020   -2.4720   -3.3300 o         1 MOL     -0.697762
     14 O4          5.3100   -4.1140   -2.7100 o         1 MOL     -0.697762
     15 H4          4.5550   -4.8790   -0.9300 hn        1 MOL      0.205533
     16 H5          3.9770   -2.9020    1.0420 h1        1 MOL      0.099175
     17 H6          5.6590   -2.6070   -0.5860 hc        1 MOL      0.058432
     18 H7          4.3750   -1.4490   -1.0670 hc        1 MOL      0.058432
     19 N2          1.4780   -3.3370   -1.0660 n         1 MOL     -0.590588
     20 C7          0.0540   -3.0300   -1.3630 c3        1 MOL     -0.012794
     21 C8         -0.8910   -3.4070   -0.2720 c         1 MOL      0.764279
     22 O5         -0.9700   -4.5260    0.2110 o         1 MOL     -0.594456
     23 C9         -0.3600   -3.6410   -2.7040 c3        1 MOL     -0.033077
     24 C10         0.5540   -3.3290   -3.9310 c3        1 MOL      0.214853
     25 C11        -0.0870   -3.7100   -5.2760 c3        1 MOL     -0.045262
     26 C12         0.7300   -3.4350   -6.5690 c3        1 MOL     -0.035861
     27 N3          1.0700   -1.9540   -6.7450 n4        1 MOL     -0.378925
     28 H8          1.9300   -4.0330   -1.6400 hn        1 MOL      0.314338
     29 H9          0.0190   -1.9630   -1.5770 h1        1 MOL      0.124887
     30 H10        -1.3710   -3.3290   -2.9720 hc        1 MOL      0.025580
     31 H11        -0.5140   -4.7140   -2.6270 hc        1 MOL      0.025580
     32 H12         1.5160   -3.8220   -3.8150 hc        1 MOL     -0.046999
     33 H13         0.7180   -2.2530   -4.0180 hc        1 MOL     -0.046999
     34 H14        -1.0490   -3.2220   -5.3550 hc        1 MOL      0.036087
     35 H15        -0.3350   -4.7640   -5.2260 hc        1 MOL      0.036087
     36 H16         0.2640   -3.8060   -7.4800 hx        1 MOL      0.107315
     37 H17         1.6860   -3.9370   -6.5190 hx        1 MOL      0.107315
     38 H18         0.3560   -1.3550   -6.3710 hn        1 MOL      0.333288
     39 H19         1.9780   -1.7770   -6.3360 hn        1 MOL      0.333288
     40 H20         1.1640   -1.7470   -7.7320 hn        1 MOL      0.333288
     41 N4         -1.6810   -2.5150    0.1920 n         1 MOL     -0.605734
     42 C13        -1.9180   -1.1190   -0.3070 c3        1 MOL      0.022302
     43 C14        -2.2500   -0.8820   -1.7670 c         1 MOL      0.531397
     44 O6         -1.4740   -0.3000   -2.4640 o         1 MOL     -0.535745
     45 C15        -1.0450    0.0160    0.2850 c3        1 MOL     -0.214274
     46 C16        -0.9960    0.0560    1.7850 c         1 MOL      0.824902
     47 O7         -0.0350    0.4850    2.4010 o         1 MOL     -0.739494
     48 O8         -1.9460   -0.3140    2.5180 o         1 MOL     -0.739494
     49 H21        -1.9940   -2.6880    1.1360 hn        1 MOL      0.313530
     50 H22        -2.8340   -0.9380    0.2540 h1        1 MOL      0.062272
     51 H23        -1.3440    1.0180   -0.0140 hc        1 MOL      0.086078
     52 H24        -0.0210   -0.0120   -0.0930 hc        1 MOL      0.086078
     53 N5         -3.3840   -1.4280   -2.2920 n         1 MOL     -0.477134
     54 C17        -4.1940   -2.3250   -1.4980 c3        1 MOL     -0.122085
     55 C18        -5.5240   -2.8110   -2.1240 c         1 MOL      0.662871
     56 O9         -5.5450   -3.3050   -3.2420 o         1 MOL     -0.570013
     57 H25        -3.6330   -1.4020   -3.2690 hn        1 MOL      0.304484
     58 H26        -4.3670   -1.7120   -0.6050 h1        1 MOL      0.090804
     59 H27        -3.6030   -3.1950   -1.2020 h1        1 MOL      0.090804
     60 N6         -6.6920   -2.7870   -1.4860 n         1 MOL     -0.500608
     61 C19        -6.8100   -2.7480   -0.0340 c3        1 MOL      0.072626
     62 C20        -7.5640   -1.5370    0.5200 c         1 MOL      0.470857
     63 O10        -8.2210   -0.8120   -0.2570 o         1 MOL     -0.476895
     64 C21        -7.6910   -3.9820    0.4130 c3        1 MOL     -0.267672
     65 C22        -9.0390   -4.1720   -0.3990 c         1 MOL      0.759295
     66 O11        -9.3440   -3.6140   -1.4590 o         1 MOL     -0.642979
     67 O12        -9.8460   -5.0300    0.0820 o         1 MOL     -0.642979
     68 H28        -7.5510   -2.6100   -1.9950 hn        1 MOL      0.337643
     69 H29        -5.8420   -2.6640    0.4540 h1        1 MOL      0.021968
     70 H30        -7.8700   -4.0060    1.4930 hc        1 MOL      0.041154
     71 H31        -7.0020   -4.7900    0.1690 hc        1 MOL      0.041154
     72 N7         -7.3820   -1.2290    1.8100 n         1 MOL     -0.236634
     73 C23        -7.7520    0.0270    2.4880 c3        1 MOL     -0.409253
     74 C24        -7.1640    1.2540    1.8730 c         1 MOL      0.657604
     75 O13        -7.8420    2.2950    1.9250 o         1 MOL     -0.570166
     76 H32        -6.7260   -1.7820    2.3360 hn        1 MOL      0.247208
     77 H33        -7.4000    0.0930    3.5170 h1        1 MOL      0.164930
     78 H34        -8.8360    0.1130    2.5160 h1        1 MOL      0.164930
     79 N8         -5.9360    1.2310    1.3640 n         1 MOL     -0.381719
     80 C25        -5.1980    2.4290    1.0330 c3        1 MOL     -0.015437
     81 C26        -4.5060    2.1920   -0.3460 c         1 MOL      0.376714
     82 O14        -4.3180    1.0990   -0.7710 o         1 MOL     -0.415861
     83 C27        -4.1150    2.7370    2.1090 c3        1 MOL      0.704720
     84 C28        -4.5960    3.1360    3.4840 c3        1 MOL     -0.606079
     85 O15        -3.2380    3.7750    1.6520 oh        1 MOL     -0.650629
     86 H35        -5.5070    0.3200    1.3920 hn        1 MOL      0.165202
     87 H36        -5.8150    3.3330    1.0920 h1        1 MOL      0.043739
     88 H37        -3.5280    1.8350    2.2470 h1        1 MOL     -0.086979
     89 H38        -3.7180    4.6130    1.7200 ho        1 MOL      0.371894
     90 H39        -3.8120    3.2390    4.2240 hc        1 MOL      0.140001
     91 H40        -5.2260    4.0340    3.4810 hc        1 MOL      0.140001
     92 H41        -5.2450    2.3400    3.8620 hc        1 MOL      0.140001
     93 N9         -4.2180    3.3370   -1.0640 n         1 MOL     -0.118558
     94 C29        -3.3540    3.3840   -2.2300 c3        1 MOL     -0.187619
     95 C30        -1.8550    3.6160   -1.9470 c         1 MOL      0.518102
     96 O16        -1.0150    3.6530   -2.8280 o         1 MOL     -0.572283
     97 C31        -4.0010    4.4130   -3.1570 c3        1 MOL      0.085394
     98 C32        -3.8760    5.8430   -2.5040 c3        1 MOL      0.327678
     99 C33        -5.4580    4.1670   -3.6190 c3        1 MOL     -0.304796
    100 C34        -3.8860    6.9080   -3.4770 c3        1 MOL     -0.279784
    101 H42        -4.5670    4.2580   -0.8260 hn        1 MOL      0.139086
    102 H43        -3.5070    2.4030   -2.6800 h1        1 MOL      0.130478
    103 H44        -3.4080    4.5420   -4.0660 hc        1 MOL      0.020233
    104 H45        -2.8820    5.8080   -2.0630 hc        1 MOL     -0.089937
    105 H46        -4.5730    6.0430   -1.6810 hc        1 MOL     -0.089937
    106 H47        -5.7290    4.9000   -4.3790 hc        1 MOL      0.079318
    107 H48        -5.4690    3.1130   -3.9130 hc        1 MOL      0.079318
    108 H49        -6.1500    4.1620   -2.7730 hc        1 MOL      0.079318
    109 H50        -2.9580    6.7900   -4.0450 hc        1 MOL      0.061623
    110 H51        -4.8170    6.9730   -4.0270 hc        1 MOL      0.061623
    111 H52        -3.8350    7.8920   -2.9990 hc        1 MOL      0.061623
    112 N10        -1.4860    4.0510   -0.7520 n         1 MOL     -0.117116
    113 C35        -0.1650    4.5980   -0.4030 c3        1 MOL     -0.052378
    114 C36         0.9600    3.5170   -0.3420 c         1 MOL      0.381163
    115 O17         1.2120    2.8720    0.7000 o         1 MOL     -0.463825
    116 C37        -0.1300    5.3970    0.8190 c3        1 MOL      0.290330
    117 C38        -1.3070    6.3970    0.8310 c3        1 MOL     -0.218051
    118 O18         0.9910    6.1740    0.9960 oh        1 MOL     -0.615520
    119 H53        -2.2030    4.2420   -0.0640 hn        1 MOL      0.079823
    120 H54         0.2100    5.2740   -1.1730 h1        1 MOL      0.100083
    121 H55        -0.1940    4.8500    1.7660 h1        1 MOL      0.050794
    122 H56         1.0160    6.3660    1.9290 ho        1 MOL      0.413852
    123 H57        -1.2890    6.9840    1.7450 hc        1 MOL      0.044157
    124 H58        -1.2520    7.2200    0.1130 hc        1 MOL      0.044157
    125 H59        -2.1980    5.7900    0.6590 hc        1 MOL      0.044157
    126 N11         1.6640    3.2620   -1.4860 n         1 MOL     -0.167037
    127 C39         2.6050    2.2020   -1.5780 c3        1 MOL     -0.127810
    128 C40         3.9910    2.6590   -1.0770 c         1 MOL      0.761785
    129 O19         4.2480    3.8580   -1.1670 o         1 MOL     -0.601813
    130 C41         2.6220    1.6580   -2.9970 c3        1 MOL      0.365442
    131 C42         1.4020    0.8250   -3.3150 c3        1 MOL     -0.164356
    132 O20         3.6930    0.8030   -3.0230 oh        1 MOL     -0.621017
    133 H60         1.6580    3.9230   -2.2530 hn        1 MOL      0.202223
    134 H61         2.3150    1.3560   -0.9450 h1        1 MOL      0.061376
    135 H62         2.8130    2.4940   -3.6700 h1        1 MOL     -0.028843
    136 H63         3.3020    0.0090   -3.3940 ho        1 MOL      0.327978
    137 H64         0.5620    1.5210   -3.3260 hc        1 MOL      0.020581
    138 H65         1.6200    0.4460   -4.3140 hc        1 MOL      0.020581
    139 H66         1.1960    0.0280   -2.6040 hc        1 MOL      0.020581
    140 N12         4.7200    1.7590   -0.3440 n         1 MOL     -0.651356
    141 C43         6.0780    2.0500    0.2310 c3        1 MOL      0.026574
    142 C44         6.3850    1.4320    1.6380 c         1 MOL      0.447346
    143 O21         7.4000    1.7840    2.2080 o         1 MOL     -0.548103
    144 C45         7.1380    1.5930   -0.7790 c3        1 MOL      0.050009
    145 C46         8.5380    2.2230   -0.7670 c3        1 MOL     -0.112701
    146 C47         9.3850    1.7580   -1.9740 c3        1 MOL     -0.004489
    147 C48         9.0110    2.6420   -3.1760 c3        1 MOL      0.038149
    148 N13        10.0340    2.5160   -4.3400 n4        1 MOL     -0.355041
    149 H67         4.3210    0.8360   -0.3220 hn        1 MOL      0.347442
    150 H68         6.1540    3.1270    0.3390 h1        1 MOL      0.132065
    151 H69         6.7200    1.7580   -1.7780 hc        1 MOL      0.022021
    152 H70         7.2030    0.5120   -0.7180 hc        1 MOL      0.022021
    153 H71         8.9160    1.7640    0.1380 hc        1 MOL      0.038430
    154 H72         8.4180    3.3060   -0.6740 hc        1 MOL      0.038430
    155 H73         9.0730    0.7350   -2.1610 hc        1 MOL      0.038166
    156 H74        10.4550    1.7910   -1.7720 hc        1 MOL      0.038166
    157 H75         8.9460    3.6440   -2.7540 hx        1 MOL      0.088639
    158 H76         8.0020    2.3610   -3.4670 hx        1 MOL      0.088639
    159 H77         9.7880    3.1070   -5.1250 hn        1 MOL      0.272459
    160 H78        10.9860    2.7130   -4.0500 hn        1 MOL      0.272459
    161 H79        10.0540    1.6000   -4.7640 hn        1 MOL      0.272459
    162 N14         5.5440    0.6010    2.2150 n         1 MOL     -0.208002
    163 C49         5.8770   -0.2720    3.3580 c3        1 MOL     -0.208399
    164 C50         6.8640   -1.4180    2.9300 c         1 MOL      0.481357
    165 O22         6.3980   -2.4850    2.4710 o         1 MOL     -0.497148
    166 C51         4.4670   -0.7810    3.8300 c3        1 MOL     -0.074118
    167 C52         3.7950    0.2800    4.6450 c3        1 MOL      0.291749
    168 C53         2.3570   -0.0940    5.0520 c         1 MOL      0.613536
    169 O23         1.5320    0.8260    5.1770 o         1 MOL     -0.789988
    170 O24         1.9180   -1.2800    5.2210 o         1 MOL     -0.789988
    171 H80         4.6400    0.4150    1.7970 hn        1 MOL      0.214779
    172 H81         6.2240    0.4010    4.1410 h1        1 MOL      0.079960
    173 H82         4.5900   -1.6040    4.5380 hc        1 MOL      0.042735
    174 H83         3.8930   -1.1820    2.9990 hc        1 MOL      0.042735
    175 H84         3.7380    1.2450    4.1470 hc        1 MOL     -0.044841
    176 H85         4.3440    0.4780    5.5690 hc        1 MOL     -0.044841
    177 N15         8.0860   -1.1780    3.2260 n         1 MOL     -0.225001
    178 C54         9.1710   -2.2150    3.1610 c3        1 MOL     -0.189945
    179 H86         8.7660   -3.1840    3.4530 h1        1 MOL      0.099286
    180 H87         9.5560   -2.2740    2.1440 h1        1 MOL      0.099286
    181 H88         9.9780   -1.9400    3.8400 h1        1 MOL      0.099286
    182 H89         8.2980   -0.2700    3.6070 hn        1 MOL      0.264072
    183 Ca1        -0.5930   -0.5390    4.7040 Ca        1 MOL      1.735161
    184 O25        -3.0650   -1.1240    5.3810 oh        1 MOL     -0.853070
    185 H90        -3.7640   -0.6110    5.7980 ho        1 MOL      0.418370
    186 H91        -3.4990   -1.9320    5.1220 ho        1 MOL      0.418370
    187 O26        -1.7990    1.7360    5.6750 oh        1 MOL     -0.853070
    188 H92        -2.5540    2.2520    5.9380 ho        1 MOL      0.418370
    189 H93        -1.3730    1.4950    6.5020 ho        1 MOL      0.418370
    190 O27         0.0100   -2.4670    3.0200 oh        1 MOL     -0.853070
    191 H94         0.0950   -3.4110    3.2020 ho        1 MOL      0.418370
    192 H95         0.6290   -2.3120    2.3050 ho        1 MOL      0.418370
@<TRIPOS>BOND
     1    1    2 1   
     2    1    4 1   
     3    1    5 1   
     4    1    6 1   
     5    2    3 2   
     6    2    7 1   
     7    7    8 1   
     8    7   15 1   
     9    8    9 1   
    10    8   11 1   
    11    8   16 1   
    12    9   10 2   
    13    9   19 1   
    14   11   12 1   
    15   11   17 1   
    16   11   18 1   
    17   12   13 1   
    18   12   14 1   
    19   19   20 1   
    20   19   28 1   
    21   20   21 1   
    22   20   23 1   
    23   20   29 1   
    24   21   22 2   
    25   21   41 1   
    26   23   24 1   
    27   23   30 1   
    28   23   31 1   
    29   24   25 1   
    30   24   32 1   
    31   24   33 1   
    32   25   26 1   
    33   25   34 1   
    34   25   35 1   
    35   26   27 1   
    36   26   36 1   
    37   26   37 1   
    38   27   38 1   
    39   27   39 1   
    40   27   40 1   
    41   41   42 1   
    42   41   49 1   
    43   42   43 1   
    44   42   45 1   
    45   42   50 1   
    46   43   44 2   
    47   43   53 1   
    48   45   46 1   
    49   45   51 1   
    50   45   52 1   
    51   46   47 1   
    52   46   48 1   
    53   53   54 1   
    54   53   57 1   
    55   54   55 1   
    56   54   58 1   
    57   54   59 1   
    58   55   56 2   
    59   55   60 1   
    60   60   61 1   
    61   60   68 1   
    62   61   62 1   
    63   61   64 1   
    64   61   69 1   
    65   62   63 2   
    66   62   72 1   
    67   64   65 1   
    68   64   70 1   
    69   64   71 1   
    70   65   66 1   
    71   65   67 1   
    72   72   73 1   
    73   72   76 1   
    74   73   74 1   
    75   73   77 1   
    76   73   78 1   
    77   74   75 2   
    78   74   79 1   
    79   79   80 1   
    80   79   86 1   
    81   80   81 1   
    82   80   83 1   
    83   80   87 1   
    84   81   82 2   
    85   81   93 1   
    86   83   84 1   
    87   83   85 1   
    88   83   88 1   
    89   84   90 1   
    90   84   91 1   
    91   84   92 1   
    92   85   89 1   
    93   93   94 1   
    94   93  101 1   
    95   94   95 1   
    96   94   97 1   
    97   94  102 1   
    98   95   96 2   
    99   95  112 1   
   100   97   98 1   
   101   97   99 1   
   102   97  103 1   
   103   98  100 1   
   104   98  104 1   
   105   98  105 1   
   106   99  106 1   
   107   99  107 1   
   108   99  108 1   
   109  100  109 1   
   110  100  110 1   
   111  100  111 1   
   112  112  113 1   
   113  112  119 1   
   114  113  114 1   
   115  113  116 1   
   116  113  120 1   
   117  114  115 2   
   118  114  126 1   
   119  116  117 1   
   120  116  118 1   
   121  116  121 1   
   122  117  123 1   
   123  117  124 1   
   124  117  125 1   
   125  118  122 1   
   126  126  127 1   
   127  126  133 1   
   128  127  128 1   
   129  127  130 1   
   130  127  134 1   
   131  128  129 2   
   132  128  140 1   
   133  130  131 1   
   134  130  132 1   
   135  130  135 1   
   136  131  137 1   
   137  131  138 1   
   138  131  139 1   
   139  132  136 1   
   140  140  141 1   
   141  140  149 1   
   142  141  142 1   
   143  141  144 1   
   144  141  150 1   
   145  142  143 2   
   146  142  162 1   
   147  144  145 1   
   148  144  151 1   
   149  144  152 1   
   150  145  146 1   
   151  145  153 1   
   152  145  154 1   
   153  146  147 1   
   154  146  155 1   
   155  146  156 1   
   156  147  148 1   
   157  147  157 1   
   158  147  158 1   
   159  148  159 1   
   160  148  160 1   
   161  148  161 1   
   162  162  163 1   
   163  162  171 1   
   164  163  164 1   
   165  163  166 1   
   166  163  172 1   
   167  164  165 2   
   168  164  177 1   
   169  166  167 1   
   170  166  173 1   
   171  166  174 1   
   172  167  168 1   
   173  167  175 1   
   174  167  176 1   
   175  168  169 1   
   176  168  170 1   
   177  177  178 1   
   178  177  182 1   
   179  178  179 1   
   180  178  180 1   
   181  178  181 1   
   182  184  185 1   
   183  184  186 1   
   184  187  188 1   
   185  187  189 1   
   186  190  191 1   
   187  190  192 1   
@<TRIPOS>SUBSTRUCTURE
     1 MOL         1 TEMP              0 ****  ****    0 ROOT
