@<TRIPOS>MOLECULE
MOL
  192   187     1     0     0
SMALL
resp


@<TRIPOS>ATOM
      1 C1          9.3220    1.0030    1.8850 c3        1 MOL     -0.579809
      2 C2          8.1140    0.4690    1.0860 c         1 MOL      0.749118
      3 O1          6.9960    0.5330    1.5850 o         1 MOL     -0.659428
      4 H1          9.7670    1.8420    1.3510 hc        1 MOL      0.148145
      5 H2          8.9900    1.3340    2.8690 hc        1 MOL      0.148145
      6 H3         10.0620    0.2110    1.9990 hc        1 MOL      0.148145
      7 N1          8.3720    0.0140   -0.1630 n         1 MOL     -0.449537
      8 C3          7.3680   -0.3350   -1.2350 c3        1 MOL     -0.207763
      9 C4          6.7640   -1.7660   -1.0840 c         1 MOL      0.430212
     10 O2          6.4310   -2.3580   -2.1170 o         1 MOL     -0.364073
     11 C5          7.9000   -0.0100   -2.6520 c3        1 MOL     -0.223291
     12 C6          8.9500   -1.0740   -3.1820 c         1 MOL      0.652893
     13 O3          8.8240   -1.4980   -4.3530 o         1 MOL     -0.607545
     14 O4          9.8410   -1.5400   -2.4290 o         1 MOL     -0.607545
     15 H4          9.3490   -0.0230   -0.4070 hn        1 MOL      0.241656
     16 H5          6.5220    0.3060   -0.9780 h1        1 MOL      0.217252
     17 H6          8.3770    0.9680   -2.5730 hc        1 MOL      0.090990
     18 H7          7.1230    0.1200   -3.4090 hc        1 MOL      0.090990
     19 N2          6.6940   -2.2410    0.1280 n         1 MOL     -0.236948
     20 C7          6.3180   -3.6030    0.3210 c3        1 MOL      0.057800
     21 C8          4.8040   -3.7880   -0.0110 c         1 MOL      0.207415
     22 O5          4.4280   -4.8410   -0.5700 o         1 MOL     -0.470968
     23 C9          6.6340   -4.0890    1.7340 c3        1 MOL     -0.099536
     24 C10         8.0830   -3.7550    2.2590 c3        1 MOL      0.059053
     25 C11         8.1960   -3.8310    3.7950 c3        1 MOL     -0.275721
     26 C12         9.5240   -3.2610    4.1950 c3        1 MOL      0.224526
     27 N3          9.8350   -3.4400    5.6380 n4        1 MOL     -0.322323
     28 H8          6.9250   -1.6490    0.9150 hn        1 MOL      0.207395
     29 H9          6.8740   -4.2460   -0.3540 h1        1 MOL      0.103824
     30 H10         6.5490   -5.1700    1.7840 hc        1 MOL      0.055917
     31 H11         5.9030   -3.6810    2.4360 hc        1 MOL      0.055917
     32 H12         8.4080   -2.7670    1.9220 hc        1 MOL      0.027746
     33 H13         8.8630   -4.3630    1.7880 hc        1 MOL      0.027746
     34 H14         8.1760   -4.8650    4.1310 hc        1 MOL      0.088497
     35 H15         7.3820   -3.2980    4.2760 hc        1 MOL      0.088497
     36 H16         9.7030   -2.2160    3.9480 hx        1 MOL      0.028986
     37 H17        10.3500   -3.6320    3.5810 hx        1 MOL      0.028986
     38 H18         9.6780   -4.3800    5.9600 hn        1 MOL      0.257557
     39 H19        10.7890   -3.2060    5.8920 hn        1 MOL      0.257557
     40 H20         9.3270   -2.7370    6.1490 hn        1 MOL      0.257557
     41 N4          3.8600   -2.9230    0.3510 n         1 MOL     -0.077521
     42 C13         3.9260   -1.6130    1.0190 c3        1 MOL     -0.074954
     43 C14         3.9560   -0.4600    0.0730 c         1 MOL      0.103201
     44 O6          3.9680   -0.6110   -1.1380 o         1 MOL     -0.321248
     45 C15         2.6770   -1.4720    1.9660 c3        1 MOL     -0.250008
     46 C16         1.3290   -1.6250    1.2330 c         1 MOL      0.768898
     47 O7          1.0770   -1.1850    0.0910 o         1 MOL     -0.641849
     48 O8          0.5170   -2.3590    1.7940 o         1 MOL     -0.641849
     49 H21         2.8990   -3.2280    0.3230 hn        1 MOL      0.252009
     50 H22         4.8490   -1.5730    1.5880 h1        1 MOL      0.136159
     51 H23         2.7040   -0.4250    2.2570 hc        1 MOL      0.042798
     52 H24         2.7590   -2.1260    2.8370 hc        1 MOL      0.042798
     53 N5          4.1730    0.7190    0.6780 n         1 MOL     -0.367872
     54 C17         4.2870    2.0440    0.0560 c3        1 MOL      0.170273
     55 C18         3.0660    2.5580   -0.7690 c         1 MOL      0.579827
     56 O9          2.0640    1.8060   -0.9420 o         1 MOL     -0.578967
     57 H25         4.2370    0.6950    1.6960 hn        1 MOL      0.324765
     58 H26         5.1100    2.0610   -0.6600 h1        1 MOL      0.014557
     59 H27         4.4710    2.8740    0.7400 h1        1 MOL      0.014557
     60 N6          3.0270    3.7460   -1.2680 n         1 MOL     -0.579733
     61 C19         1.9060    4.2870   -2.1100 c3        1 MOL      0.112284
     62 C20         2.0330    5.8230   -2.4080 c         1 MOL      0.403955
     63 O10         3.1570    6.4160   -2.3160 o         1 MOL     -0.539766
     64 C21         2.0860    3.6600   -3.5480 c3        1 MOL     -0.074903
     65 C22         0.8170    2.9540   -3.9500 c         1 MOL      0.654143
     66 O11         0.1330    2.2520   -3.2020 o         1 MOL     -0.681044
     67 O12         0.7840    2.7610   -5.1720 o         1 MOL     -0.681044
     68 H28         3.7980    4.3420   -0.9810 hn        1 MOL      0.294466
     69 H29         0.9880    4.1240   -1.5410 h1        1 MOL      0.209418
     70 H30         2.9060    2.9470   -3.6030 hc        1 MOL      0.071154
     71 H31         2.3610    4.4180   -4.2850 hc        1 MOL      0.071154
     72 N7          1.0210    6.5510   -2.8240 n         1 MOL     -0.392521
     73 C23        -0.3950    6.2380   -2.9540 c3        1 MOL      0.021434
     74 C24        -1.0930    6.1860   -1.6040 c         1 MOL      0.584729
     75 O13        -0.5200    6.6230   -0.6370 o         1 MOL     -0.525265
     76 H32         1.2720    7.5130   -2.9990 hn        1 MOL      0.300224
     77 H33        -0.4450    5.2810   -3.4740 h1        1 MOL      0.035296
     78 H34        -0.8970    6.9840   -3.5740 h1        1 MOL      0.035296
     79 N8         -2.1690    5.5020   -1.5850 n         1 MOL     -0.619880
     80 C25        -2.7570    4.9450   -0.3340 c3        1 MOL      0.041998
     81 C26        -1.8110    3.9690    0.3420 c         1 MOL      0.888123
     82 O14        -1.0650    3.2320   -0.2910 o         1 MOL     -0.919500
     83 C27        -4.1330    4.3720   -0.6830 c3        1 MOL      0.253725
     84 C28        -5.0800    4.2300    0.5170 c3        1 MOL     -0.031703
     85 O15        -4.0430    3.1200   -1.3960 oh        1 MOL     -0.555350
     86 H35        -2.5050    5.1840   -2.4810 hn        1 MOL      0.334072
     87 H36        -2.8800    5.8110    0.3150 h1        1 MOL      0.079958
     88 H37        -4.5930    5.1110   -1.3480 h1        1 MOL      0.027479
     89 H38        -3.8080    3.3080   -2.3070 ho        1 MOL      0.383336
     90 H39        -5.1910    5.1670    1.0760 hc        1 MOL      0.006820
     91 H40        -6.0800    3.9360    0.2210 hc        1 MOL      0.006820
     92 H41        -4.6270    3.5040    1.1960 hc        1 MOL      0.006820
     93 N9         -1.7810    3.9950    1.6480 n         1 MOL     -0.596578
     94 C29        -0.9750    3.1050    2.5370 c3        1 MOL      0.028924
     95 C30        -1.2950    1.6510    2.3290 c         1 MOL      0.751339
     96 O16        -0.6460    0.9310    1.6140 o         1 MOL     -0.700153
     97 C31         0.5150    3.4230    2.4050 c3        1 MOL      0.148002
     98 C32         0.8840    4.9050    2.3900 c3        1 MOL     -0.253247
     99 C33         1.3030    2.5850    3.4410 c3        1 MOL     -0.407436
    100 C34         0.3900    5.8750    3.4680 c3        1 MOL     -0.070456
    101 H42        -2.2380    4.6920    2.2220 hn        1 MOL      0.292923
    102 H43        -1.1830    3.2970    3.5900 h1        1 MOL      0.071732
    103 H44         0.9100    3.2140    1.4090 hc        1 MOL     -0.014382
    104 H45         0.4440    5.2170    1.4460 hc        1 MOL      0.118771
    105 H46         1.9530    5.0670    2.3010 hc        1 MOL      0.118771
    106 H47         0.9460    2.7730    4.4630 hc        1 MOL      0.110428
    107 H48         1.1120    1.5200    3.3020 hc        1 MOL      0.110428
    108 H49         2.3680    2.7680    3.3160 hc        1 MOL      0.110428
    109 H50         0.7240    5.5650    4.4570 hc        1 MOL      0.024734
    110 H51         0.7200    6.9030    3.3020 hc        1 MOL      0.024734
    111 H52        -0.6890    5.9160    3.5360 hc        1 MOL      0.024734
    112 N10        -2.2500    1.0940    3.0760 n         1 MOL     -0.476112
    113 C35        -2.8080   -0.2430    2.9560 c3        1 MOL     -0.005461
    114 C36        -4.3170   -0.5140    2.9010 c         1 MOL      0.485701
    115 O17        -4.8210   -1.5910    3.3170 o         1 MOL     -0.557362
    116 C37        -2.1090   -1.0930    4.0460 c3        1 MOL      0.424989
    117 C38        -2.3610   -0.6280    5.4810 c3        1 MOL     -0.436521
    118 O18        -0.7080   -1.1320    3.8360 oh        1 MOL     -0.577519
    119 H53        -2.6550    1.6140    3.8460 hn        1 MOL      0.236070
    120 H54        -2.3170   -0.6520    2.0690 h1        1 MOL      0.043166
    121 H55        -2.4800   -2.1100    3.9580 h1        1 MOL     -0.000578
    122 H56        -0.5260   -1.5190    2.9850 ho        1 MOL      0.327145
    123 H57        -1.8140   -1.3880    6.0490 hc        1 MOL      0.108098
    124 H58        -1.7570    0.2540    5.6720 hc        1 MOL      0.108098
    125 H59        -3.3970   -0.5280    5.8110 hc        1 MOL      0.108098
    126 N11        -5.1060    0.4930    2.4570 n         1 MOL     -0.176991
    127 C39        -6.5780    0.3200    2.3710 c3        1 MOL      0.001574
    128 C40        -6.8360   -0.4660    1.0460 c         1 MOL      0.620842
    129 O19        -6.9960    0.1090    0.0150 o         1 MOL     -0.553733
    130 C41        -7.3140    1.6640    2.4640 c3        1 MOL      0.325266
    131 C42        -8.8040    1.4830    2.7460 c3        1 MOL     -0.291530
    132 O20        -6.8740    2.2920    3.6660 oh        1 MOL     -0.659761
    133 H60        -4.6910    1.3500    2.1140 hn        1 MOL      0.184116
    134 H61        -6.9400   -0.2870    3.2000 h1        1 MOL      0.078984
    135 H62        -7.1090    2.3740    1.6610 h1        1 MOL      0.007567
    136 H63        -7.4280    3.0800    3.7020 ho        1 MOL      0.412071
    137 H64        -9.0780    1.2990    3.7810 hc        1 MOL      0.075653
    138 H65        -9.2790    2.4230    2.4870 hc        1 MOL      0.075653
    139 H66        -9.2510    0.6750    2.1670 hc        1 MOL      0.075653
    140 N12        -6.6820   -1.7790    1.0300 n         1 MOL     -0.732395
    141 C43        -6.4890   -2.6890   -0.1310 c3        1 MOL      0.271724
    142 C44        -5.2010   -2.4040   -0.8420 c         1 MOL      0.381672
    143 O21        -4.8310   -1.2030   -0.9590 o         1 MOL     -0.446706
    144 C45        -7.7560   -2.7030   -0.9530 c3        1 MOL     -0.520687
    145 C46        -8.9830   -3.2080   -0.2240 c3        1 MOL      0.055799
    146 C47       -10.0960   -3.5980   -1.1530 c3        1 MOL     -0.341319
    147 C48       -11.3640   -3.6920   -0.2890 c3        1 MOL      0.207430
    148 N13       -12.4480   -4.5050   -0.9330 n4        1 MOL     -0.289832
    149 H67        -6.3760   -2.2140    1.8860 hn        1 MOL      0.345631
    150 H68        -6.3410   -3.6620    0.3250 h1        1 MOL      0.040348
    151 H69        -7.6860   -3.3550   -1.8340 hc        1 MOL      0.194657
    152 H70        -7.9420   -1.7220   -1.3920 hc        1 MOL      0.194657
    153 H71        -9.3460   -2.3910    0.4040 hc        1 MOL      0.070691
    154 H72        -8.7930   -4.0380    0.4590 hc        1 MOL      0.070691
    155 H73        -9.9290   -4.5550   -1.6480 hc        1 MOL      0.117787
    156 H74       -10.2030   -2.7790   -1.8550 hc        1 MOL      0.117787
    157 H75       -11.7030   -2.7500    0.1440 hx        1 MOL      0.029002
    158 H76       -11.1660   -4.2480    0.6260 hx        1 MOL      0.029002
    159 H77       -12.6860   -4.0020   -1.7750 hn        1 MOL      0.228528
    160 H78       -12.0650   -5.4180   -1.1050 hn        1 MOL      0.228528
    161 H79       -13.2620   -4.6080   -0.3520 hn        1 MOL      0.228528
    162 N14        -4.4250   -3.4270   -1.2470 n         1 MOL     -0.360570
    163 C49        -3.1780   -3.2120   -1.9130 c3        1 MOL      0.090664
    164 C50        -2.0960   -2.7000   -0.8940 c         1 MOL      0.548460
    165 O22        -1.4850   -1.7390   -1.1420 o         1 MOL     -0.626064
    166 C51        -2.6460   -4.5540   -2.5120 c3        1 MOL      0.199013
    167 C52        -2.9710   -4.5530   -4.0160 c3        1 MOL     -0.221963
    168 C53        -2.4190   -5.7910   -4.7040 c         1 MOL      0.690418
    169 O23        -1.2520   -5.8390   -5.1190 o         1 MOL     -0.616949
    170 O24        -3.1750   -6.7870   -4.7650 o         1 MOL     -0.616949
    171 H80        -4.8550   -4.3410   -1.2120 hn        1 MOL      0.255616
    172 H81        -3.3570   -2.4800   -2.7020 h1        1 MOL      0.084549
    173 H82        -3.1290   -5.3960   -2.0130 hc        1 MOL     -0.020089
    174 H83        -1.5900   -4.6710   -2.2990 hc        1 MOL     -0.020089
    175 H84        -2.5870   -3.6280   -4.4400 hc        1 MOL      0.010216
    176 H85        -4.0550   -4.4730   -4.0470 hc        1 MOL      0.010216
    177 N15        -1.7320   -3.2990    0.2530 n         1 MOL     -0.429774
    178 C54        -2.1390   -4.5540    0.9630 c3        1 MOL      0.064131
    179 H86        -2.9540   -5.0310    0.4180 h1        1 MOL      0.007006
    180 H87        -1.2900   -5.2350    1.0140 h1        1 MOL      0.007006
    181 H88        -2.4710   -4.3100    1.9720 h1        1 MOL      0.007006
    182 H89        -1.0390   -2.7590    0.7580 hn        1 MOL      0.381594
    183 Ca1        -0.2640    0.7380   -0.9850 Ca        1 MOL      1.808202
    184 O25        -1.8220    0.3600   -3.2850 oh        1 MOL     -0.795838
    185 H90        -2.6910    0.3490   -3.6770 ho        1 MOL      0.371976
    186 H91        -1.4010    1.1510   -3.6200 ho        1 MOL      0.371976
    187 O26         1.6560   -0.3860   -2.5190 oh        1 MOL     -0.795838
    188 H92         2.3190   -0.6000   -1.8750 ho        1 MOL      0.371976
    189 H93         2.0220    0.3670   -2.9960 ho        1 MOL      0.371976
    190 O27        -3.0620    0.8990   -0.4500 oh        1 MOL     -0.795838
    191 H94        -3.5170    0.0740   -0.6170 ho        1 MOL      0.371976
    192 H95        -3.6390    1.5700   -0.8020 ho        1 MOL      0.371976
@<TRIPOS>BOND
     1    1    2 1   
     2    1    4 1   
     3    1    5 1   
     4    1    6 1   
     5    2    3 2   
     6    2    7 1   
     7    7    8 1   
     8    7   15 1   
     9    8    9 1   
    10    8   11 1   
    11    8   16 1   
    12    9   10 2   
    13    9   19 1   
    14   11   12 1   
    15   11   17 1   
    16   11   18 1   
    17   12   13 1   
    18   12   14 1   
    19   19   20 1   
    20   19   28 1   
    21   20   21 1   
    22   20   23 1   
    23   20   29 1   
    24   21   22 2   
    25   21   41 1   
    26   23   24 1   
    27   23   30 1   
    28   23   31 1   
    29   24   25 1   
    30   24   32 1   
    31   24   33 1   
    32   25   26 1   
    33   25   34 1   
    34   25   35 1   
    35   26   27 1   
    36   26   36 1   
    37   26   37 1   
    38   27   38 1   
    39   27   39 1   
    40   27   40 1   
    41   41   42 1   
    42   41   49 1   
    43   42   43 1   
    44   42   45 1   
    45   42   50 1   
    46   43   44 2   
    47   43   53 1   
    48   45   46 1   
    49   45   51 1   
    50   45   52 1   
    51   46   47 1   
    52   46   48 1   
    53   53   54 1   
    54   53   57 1   
    55   54   55 1   
    56   54   58 1   
    57   54   59 1   
    58   55   56 2   
    59   55   60 1   
    60   60   61 1   
    61   60   68 1   
    62   61   62 1   
    63   61   64 1   
    64   61   69 1   
    65   62   63 2   
    66   62   72 1   
    67   64   65 1   
    68   64   70 1   
    69   64   71 1   
    70   65   66 1   
    71   65   67 1   
    72   72   73 1   
    73   72   76 1   
    74   73   74 1   
    75   73   77 1   
    76   73   78 1   
    77   74   75 2   
    78   74   79 1   
    79   79   80 1   
    80   79   86 1   
    81   80   81 1   
    82   80   83 1   
    83   80   87 1   
    84   81   82 2   
    85   81   93 1   
    86   83   84 1   
    87   83   85 1   
    88   83   88 1   
    89   84   90 1   
    90   84   91 1   
    91   84   92 1   
    92   85   89 1   
    93   93   94 1   
    94   93  101 1   
    95   94   95 1   
    96   94   97 1   
    97   94  102 1   
    98   95   96 2   
    99   95  112 1   
   100   97   98 1   
   101   97   99 1   
   102   97  103 1   
   103   98  100 1   
   104   98  104 1   
   105   98  105 1   
   106   99  106 1   
   107   99  107 1   
   108   99  108 1   
   109  100  109 1   
   110  100  110 1   
   111  100  111 1   
   112  112  113 1   
   113  112  119 1   
   114  113  114 1   
   115  113  116 1   
   116  113  120 1   
   117  114  115 2   
   118  114  126 1   
   119  116  117 1   
   120  116  118 1   
   121  116  121 1   
   122  117  123 1   
   123  117  124 1   
   124  117  125 1   
   125  118  122 1   
   126  126  127 1   
   127  126  133 1   
   128  127  128 1   
   129  127  130 1   
   130  127  134 1   
   131  128  129 2   
   132  128  140 1   
   133  130  131 1   
   134  130  132 1   
   135  130  135 1   
   136  131  137 1   
   137  131  138 1   
   138  131  139 1   
   139  132  136 1   
   140  140  141 1   
   141  140  149 1   
   142  141  142 1   
   143  141  144 1   
   144  141  150 1   
   145  142  143 2   
   146  142  162 1   
   147  144  145 1   
   148  144  151 1   
   149  144  152 1   
   150  145  146 1   
   151  145  153 1   
   152  145  154 1   
   153  146  147 1   
   154  146  155 1   
   155  146  156 1   
   156  147  148 1   
   157  147  157 1   
   158  147  158 1   
   159  148  159 1   
   160  148  160 1   
   161  148  161 1   
   162  162  163 1   
   163  162  171 1   
   164  163  164 1   
   165  163  166 1   
   166  163  172 1   
   167  164  165 2   
   168  164  177 1   
   169  166  167 1   
   170  166  173 1   
   171  166  174 1   
   172  167  168 1   
   173  167  175 1   
   174  167  176 1   
   175  168  169 1   
   176  168  170 1   
   177  177  178 1   
   178  177  182 1   
   179  178  179 1   
   180  178  180 1   
   181  178  181 1   
   182  184  185 1   
   183  184  186 1   
   184  187  188 1   
   185  187  189 1   
   186  190  191 1   
   187  190  192 1   
@<TRIPOS>SUBSTRUCTURE
     1 MOL         1 TEMP              0 ****  ****    0 ROOT
