@<TRIPOS>MOLECULE
MOL
  192   187     1     0     0
SMALL
resp


@<TRIPOS>ATOM
      1 C1         -3.7330   -4.2150   -3.6760 c3        1 MOL     -0.487125
      2 C2         -4.6180   -3.5890   -2.5600 c         1 MOL      0.696327
      3 O1         -4.0810   -3.2330   -1.5170 o         1 MOL     -0.541671
      4 H1         -4.2870   -4.2260   -4.6150 hc        1 MOL      0.124660
      5 H2         -2.8260   -3.6220   -3.7960 hc        1 MOL      0.124660
      6 H3         -3.4660   -5.2360   -3.3990 hc        1 MOL      0.124660
      7 N1         -5.9150   -3.2660   -2.8590 n         1 MOL     -0.689035
      8 C3         -6.8060   -2.3990   -2.2090 c3        1 MOL      0.360004
      9 C4         -6.1360   -1.1260   -1.7130 c         1 MOL      0.163962
     10 O2         -5.7750   -1.0370   -0.5830 o         1 MOL     -0.459640
     11 C5         -7.7170   -3.0150   -1.1030 c3        1 MOL     -0.141212
     12 C6         -7.1330   -4.1460   -0.2420 c         1 MOL      0.823164
     13 O3         -6.0160   -3.9440    0.2580 o         1 MOL     -0.753949
     14 O4         -7.7250   -5.2410   -0.1580 o         1 MOL     -0.753949
     15 H4         -6.1940   -3.6290   -3.7610 hn        1 MOL      0.328177
     16 H5         -7.4840   -2.1140   -3.0130 h1        1 MOL     -0.005174
     17 H6         -8.5840   -3.4450   -1.5970 hc        1 MOL     -0.015798
     18 H7         -8.0510   -2.2420   -0.3970 hc        1 MOL     -0.015798
     19 N2         -5.8590   -0.2970   -2.7110 n         1 MOL     -0.314237
     20 C7         -5.4110    1.0660   -2.6810 c3        1 MOL     -0.023728
     21 C8         -6.2040    2.1110   -1.8800 c         1 MOL      0.365446
     22 O5         -6.3820    3.2310   -2.4030 o         1 MOL     -0.553888
     23 C9         -3.8640    1.1840   -2.3310 c3        1 MOL      0.502838
     24 C10        -3.2210    2.4780   -2.9590 c3        1 MOL     -0.158965
     25 C11        -3.0680   -0.0210   -2.7500 c3        1 MOL     -0.175504
     26 C12        -3.6290    2.8980   -4.4030 c3        1 MOL     -0.419383
     27 H8         -6.2080   -0.5880   -3.6130 hn        1 MOL      0.251030
     28 H9         -5.4960    1.3130   -3.7430 h1        1 MOL      0.048467
     29 H10        -3.8090    1.3070   -1.2490 hc        1 MOL     -0.436646
     30 H11        -2.1430    2.3950   -2.8190 hc        1 MOL      0.144070
     31 H12        -3.5570    3.3190   -2.3650 hc        1 MOL      0.144070
     32 H13        -2.0260    0.1630   -2.4810 hc        1 MOL      0.020434
     33 H14        -3.4030   -0.8440   -2.1150 hc        1 MOL      0.020434
     34 H15        -3.1340   -0.1600   -3.8220 hc        1 MOL      0.020434
     35 H16        -3.0270    3.7770   -4.6310 hc        1 MOL      0.095705
     36 H17        -3.4130    2.0780   -5.0850 hc        1 MOL      0.095705
     37 H18        -4.6700    3.1870   -4.5480 hc        1 MOL      0.095705
     38 N3         -6.5660    1.7480   -0.6260 n         1 MOL     -0.023380
     39 C13        -7.5480    2.4600    0.2620 c3        1 MOL      0.029239
     40 C14        -7.1910    3.9000    0.5710 c         1 MOL      0.529149
     41 O6         -8.0870    4.7220    0.5340 o         1 MOL     -0.605035
     42 C15        -7.8140    1.6650    1.5610 c3        1 MOL     -0.196047
     43 C16        -8.2480    0.2580    1.3530 c         1 MOL      0.765613
     44 O7         -8.8250    0.0190    0.2680 o         1 MOL     -0.682794
     45 O8         -8.0940   -0.5420    2.2500 o         1 MOL     -0.682794
     46 H19        -6.3080    0.8000   -0.4020 hn        1 MOL      0.191593
     47 H20        -8.3910    2.3980   -0.4330 h1        1 MOL      0.035317
     48 H21        -8.6260    2.2270    2.0320 hc        1 MOL      0.035794
     49 H22        -6.9000    1.6730    2.1570 hc        1 MOL      0.035794
     50 N4         -6.0030    4.3160    0.9270 n         1 MOL     -0.459559
     51 C17        -4.7670    3.5260    0.9700 c3        1 MOL      0.134902
     52 C18        -3.5940    4.0910    1.7420 c         1 MOL      0.469972
     53 O9         -3.3330    5.2570    1.7040 o         1 MOL     -0.563717
     54 H23        -5.9520    5.2940    1.1780 hn        1 MOL      0.279755
     55 H24        -4.5440    3.4700   -0.0920 h1        1 MOL      0.027002
     56 H25        -5.0660    2.5130    1.2690 h1        1 MOL      0.027002
     57 N5         -2.8370    3.2460    2.4390 n         1 MOL     -0.295143
     58 C19        -2.9630    1.8190    2.6490 c3        1 MOL      0.156680
     59 C20        -3.0030    0.9190    1.3960 c         1 MOL      0.095823
     60 O10        -3.9760    0.1670    1.2100 o         1 MOL     -0.385617
     61 C21        -4.0120    1.5240    3.7050 c3        1 MOL     -0.036642
     62 C22        -3.7690    0.2240    4.5320 c         1 MOL      0.679682
     63 O11        -2.6080   -0.0280    4.8640 o         1 MOL     -0.666545
     64 O12        -4.7840   -0.4000    4.8950 o         1 MOL     -0.666545
     65 H26        -1.9920    3.6760    2.7920 hn        1 MOL      0.171490
     66 H27        -2.0310    1.5730    3.1630 h1        1 MOL      0.029958
     67 H28        -5.0170    1.5920    3.2970 hc        1 MOL     -0.012516
     68 H29        -3.9990    2.3320    4.4480 hc        1 MOL     -0.012516
     69 N6         -1.9830    1.0690    0.5190 n         1 MOL     -0.154171
     70 C23        -0.5780    1.5580    0.7630 c3        1 MOL     -0.180577
     71 C24        -0.2280    2.8800    0.0520 c         1 MOL      0.479041
     72 O13        -1.0320    3.4650   -0.6360 o         1 MOL     -0.516540
     73 H30        -2.1030    0.7080   -0.4210 hn        1 MOL      0.371015
     74 H31         0.1720    0.8590    0.4100 h1        1 MOL      0.095876
     75 H32        -0.4200    1.6890    1.8330 h1        1 MOL      0.095876
     76 N7          0.9070    3.4420    0.3340 n         1 MOL     -0.212758
     77 C25         1.3630    4.8440    0.0340 c3        1 MOL     -0.016159
     78 C26         1.9820    4.9730   -1.3160 c         1 MOL      0.396019
     79 O14         1.6350    5.8640   -2.1270 o         1 MOL     -0.474698
     80 C27         2.2640    5.3780    1.1110 c3        1 MOL      0.046653
     81 C28         1.5200    5.8640    2.4200 c3        1 MOL     -0.189012
     82 C29         1.1260    4.6930    3.3150 c         1 MOL      0.457006
     83 N8          2.0830    4.1190    3.9850 n         1 MOL     -0.647265
     84 O15        -0.0330    4.2440    3.4920 o         1 MOL     -0.455015
     85 H33         1.5520    2.9720    0.9600 hn        1 MOL      0.191502
     86 H34         0.4300    5.3950   -0.0830 h1        1 MOL      0.145949
     87 H35         2.8260    6.2690    0.8320 hc        1 MOL     -0.004987
     88 H36         2.9990    4.6000    1.3260 hc        1 MOL     -0.004987
     89 H37         0.6510    6.4440    2.0980 hc        1 MOL      0.093075
     90 H38         2.1030    6.5940    2.9770 hc        1 MOL      0.093075
     91 H39         3.0460    4.4310    4.0230 hn        1 MOL      0.339690
     92 H40         1.7420    3.3330    4.5130 hn        1 MOL      0.339690
     93 N9          2.7610    3.9170   -1.7070 n         1 MOL     -0.437503
     94 C30         3.3220    3.6020   -3.0390 c3        1 MOL     -0.058763
     95 C31         4.8200    3.3630   -3.1280 c         1 MOL      0.531859
     96 O16         5.3520    3.3400   -4.2310 o         1 MOL     -0.536649
     97 C32         2.6620    2.3910   -3.6810 c3        1 MOL      0.026485
     98 C33         1.1580    2.7430   -3.9540 c3        1 MOL     -0.053526
     99 C34         2.8190    1.1710   -2.7510 c3        1 MOL     -0.053526
    100 H41         2.8670    3.1160   -1.1160 hn        1 MOL      0.311611
    101 H42         3.1810    4.4140   -3.7510 h1        1 MOL      0.127205
    102 H43         2.9720    2.0500   -4.6720 hc        1 MOL      0.047895
    103 H44         0.6700    3.0360   -3.0230 hc        1 MOL      0.002587
    104 H45         1.0850    3.5930   -4.6240 hc        1 MOL      0.002587
    105 H46         0.5760    1.8730   -4.2510 hc        1 MOL      0.002587
    106 H47         2.7060    0.2590   -3.3340 hc        1 MOL      0.002587
    107 H48         3.7590    1.1290   -2.1850 hc        1 MOL      0.002587
    108 H49         2.0370    1.2130   -1.9910 hc        1 MOL      0.002587
    109 N10         5.4880    3.1410   -1.9480 n         1 MOL     -0.406373
    110 C35         6.9280    2.7310   -1.8700 c3        1 MOL      0.249461
    111 C36         7.2120    1.1910   -1.6430 c         1 MOL      0.404510
    112 O17         8.2720    0.7110   -1.9530 o         1 MOL     -0.514956
    113 C37         7.5250    3.5910   -0.7930 c3        1 MOL     -0.425528
    114 C38         9.0210    3.5120   -0.5090 c         1 MOL      0.802248
    115 N11         9.8400    3.6910   -1.5200 n         1 MOL     -0.888582
    116 O18         9.4440    3.1990    0.5830 o         1 MOL     -0.614174
    117 H50         5.0960    3.2240   -1.0180 hn        1 MOL      0.221149
    118 H51         7.3770    3.0650   -2.8050 h1        1 MOL      0.032533
    119 H52         6.9940    3.5090    0.1650 hc        1 MOL      0.101333
    120 H53         7.3770    4.5960   -1.1800 hc        1 MOL      0.101333
    121 H54         9.4570    3.7470   -2.4470 hn        1 MOL      0.395067
    122 H55        10.8290    3.7890   -1.3210 hn        1 MOL      0.395067
    123 N12         6.2780    0.4250   -0.9860 n         1 MOL     -0.276373
    124 C39         6.6400   -0.7790   -0.3100 c3        1 MOL      0.153686
    125 C40         5.4520   -1.7360   -0.3110 c         1 MOL      0.219801
    126 O19         4.3120   -1.2510   -0.4140 o         1 MOL     -0.420943
    127 C41         7.0450   -0.5750    1.2000 c3        1 MOL     -0.076013
    128 C42         8.3850   -1.1610    1.6770 ca        1 MOL      0.027444
    129 C43         9.5320   -0.3600    1.8090 ca        1 MOL     -0.188567
    130 C44         8.4040   -2.4650    2.2990 ca        1 MOL     -0.188567
    131 C45        10.7310   -0.8960    2.4100 ca        1 MOL     -0.280630
    132 C46         9.5600   -2.9610    2.9980 ca        1 MOL     -0.280630
    133 C47        10.7490   -2.1630    3.0390 ca        1 MOL      0.333206
    134 O20        11.8450   -2.4760    3.7850 oh        1 MOL     -0.441765
    135 H56         5.4460    0.8980   -0.6750 hn        1 MOL      0.249099
    136 H57         7.5020   -1.2500   -0.7690 h1        1 MOL      0.033863
    137 H58         6.3040   -0.9680    1.8970 hc        1 MOL      0.046275
    138 H59         7.1130    0.5000    1.3550 hc        1 MOL      0.046275
    139 H60         9.4890    0.6580    1.4640 ha        1 MOL      0.191909
    140 H61         7.4620   -2.9850    2.3860 ha        1 MOL      0.191909
    141 H62        11.6290   -0.3220    2.2670 ha        1 MOL      0.149384
    142 H63         9.5340   -3.8790    3.5590 ha        1 MOL      0.149384
    143 H64        12.5530   -2.0580    3.2920 ho        1 MOL      0.300977
    144 N13         5.7310   -3.0120   -0.1370 n         1 MOL     -0.299557
    145 C48         4.8620   -4.1550    0.2390 c3        1 MOL     -0.052897
    146 C49         3.6120   -4.4280   -0.4730 c         1 MOL      0.263906
    147 O21         3.1630   -5.6320   -0.4510 o         1 MOL     -0.496831
    148 C50         4.6020   -4.2770    1.7500 c3        1 MOL     -0.080891
    149 C51         3.6860   -3.1050    2.2670 c3        1 MOL     -0.080799
    150 C52         3.2460   -3.2080    3.6530 c         1 MOL      0.746160
    151 O22         2.0550   -3.2720    3.9700 o         1 MOL     -0.736443
    152 O23         4.0900   -3.2050    4.5480 o         1 MOL     -0.736443
    153 H65         6.7070   -3.2480   -0.2820 hn        1 MOL      0.264535
    154 H66         5.4720   -5.0420    0.0740 h1        1 MOL      0.092046
    155 H67         5.5940   -4.2520    2.2110 hc        1 MOL      0.054389
    156 H68         4.1190   -5.2200    2.0060 hc        1 MOL      0.054389
    157 H69         2.8080   -3.0840    1.6230 hc        1 MOL      0.006614
    158 H70         4.2390   -2.1800    2.1020 hc        1 MOL      0.006614
    159 N14         2.9460   -3.5360   -1.1750 n         1 MOL     -0.106250
    160 C53         1.7550   -3.8750   -2.0350 c3        1 MOL     -0.187713
    161 C54         2.2450   -4.5500   -3.3380 c         1 MOL      0.480835
    162 O24         1.5320   -5.4550   -3.7740 o         1 MOL     -0.535990
    163 C55         0.9490   -2.5880   -2.3840 c3        1 MOL      0.093949
    164 C56         0.4140   -1.7320   -1.1980 c3        1 MOL      0.440316
    165 C57        -0.6230   -2.4330   -0.3110 c         1 MOL      0.445401
    166 O25        -0.3790   -3.5430    0.2210 o         1 MOL     -0.596225
    167 O26        -1.7400   -1.8480   -0.1580 o         1 MOL     -0.596225
    168 H71         3.1350   -2.5470   -1.0620 hn        1 MOL      0.200252
    169 H72         1.1530   -4.5900   -1.4710 h1        1 MOL      0.173322
    170 H73         0.1350   -2.6880   -3.1060 hc        1 MOL     -0.036520
    171 H74         1.6630   -1.9210   -2.8690 hc        1 MOL     -0.036520
    172 H75        -0.0620   -0.8610   -1.6380 hc        1 MOL     -0.172221
    173 H76         1.1870   -1.3110   -0.5550 hc        1 MOL     -0.172221
    174 N15         3.3780   -4.1520   -3.8730 n         1 MOL     -0.209911
    175 C58         3.9650   -4.7000   -5.0360 c3        1 MOL     -0.256901
    176 H77         4.0330   -3.9300   -5.8040 h1        1 MOL      0.096612
    177 H78         4.9630   -5.0680   -4.8010 h1        1 MOL      0.096612
    178 H79         3.3500   -5.5230   -5.4010 h1        1 MOL      0.096612
    179 H80         3.9480   -3.4260   -3.4590 hn        1 MOL      0.218023
    180 Ca1        -4.0820   -2.4380    0.9540 Ca        1 MOL      1.737248
    181 O27        -5.8880   -1.7850    2.9600 oh        1 MOL     -0.819735
    182 H81        -5.5020   -1.1370    3.5470 ho        1 MOL      0.386222
    183 H82        -6.7390   -1.4310    2.7260 ho        1 MOL      0.386222
    184 O28        -2.6660   -4.6810    0.6320 oh        1 MOL     -0.819735
    185 H83        -2.7180   -5.5810    0.3100 ho        1 MOL      0.386222
    186 H84        -1.7310   -4.4730    0.5900 ho        1 MOL      0.386222
    187 O29        -2.3690   -1.8130    3.0310 oh        1 MOL     -0.819735
    188 H85        -1.4990   -2.2200    2.9750 ho        1 MOL      0.386222
    189 H86        -2.2700   -1.1340    3.7050 ho        1 MOL      0.386222
    190 O30        -4.4180   -4.2380    3.0160 oh        1 MOL     -0.819735
    191 H87        -3.6280   -4.5750    3.4330 ho        1 MOL      0.386222
    192 H88        -4.8590   -3.7270    3.6940 ho        1 MOL      0.386222
@<TRIPOS>BOND
     1    1    2 1   
     2    1    4 1   
     3    1    5 1   
     4    1    6 1   
     5    2    3 2   
     6    2    7 1   
     7    7    8 1   
     8    7   15 1   
     9    8    9 1   
    10    8   11 1   
    11    8   16 1   
    12    9   10 2   
    13    9   19 1   
    14   11   12 1   
    15   11   17 1   
    16   11   18 1   
    17   12   13 1   
    18   12   14 1   
    19   19   20 1   
    20   19   27 1   
    21   20   21 1   
    22   20   23 1   
    23   20   28 1   
    24   21   22 2   
    25   21   38 1   
    26   23   24 1   
    27   23   25 1   
    28   23   29 1   
    29   24   26 1   
    30   24   30 1   
    31   24   31 1   
    32   25   32 1   
    33   25   33 1   
    34   25   34 1   
    35   26   35 1   
    36   26   36 1   
    37   26   37 1   
    38   38   39 1   
    39   38   46 1   
    40   39   40 1   
    41   39   42 1   
    42   39   47 1   
    43   40   41 2   
    44   40   50 1   
    45   42   43 1   
    46   42   48 1   
    47   42   49 1   
    48   43   44 1   
    49   43   45 1   
    50   50   51 1   
    51   50   54 1   
    52   51   52 1   
    53   51   55 1   
    54   51   56 1   
    55   52   53 2   
    56   52   57 1   
    57   57   58 1   
    58   57   65 1   
    59   58   59 1   
    60   58   61 1   
    61   58   66 1   
    62   59   60 2   
    63   59   69 1   
    64   61   62 1   
    65   61   67 1   
    66   61   68 1   
    67   62   63 1   
    68   62   64 1   
    69   69   70 1   
    70   69   73 1   
    71   70   71 1   
    72   70   74 1   
    73   70   75 1   
    74   71   72 2   
    75   71   76 1   
    76   76   77 1   
    77   76   85 1   
    78   77   78 1   
    79   77   80 1   
    80   77   86 1   
    81   78   79 2   
    82   78   93 1   
    83   80   81 1   
    84   80   87 1   
    85   80   88 1   
    86   81   82 1   
    87   81   89 1   
    88   81   90 1   
    89   82   83 1   
    90   82   84 2   
    91   83   91 1   
    92   83   92 1   
    93   93   94 1   
    94   93  100 1   
    95   94   95 1   
    96   94   97 1   
    97   94  101 1   
    98   95   96 2   
    99   95  109 1   
   100   97   98 1   
   101   97   99 1   
   102   97  102 1   
   103   98  103 1   
   104   98  104 1   
   105   98  105 1   
   106   99  106 1   
   107   99  107 1   
   108   99  108 1   
   109  109  110 1   
   110  109  117 1   
   111  110  111 1   
   112  110  113 1   
   113  110  118 1   
   114  111  112 2   
   115  111  123 1   
   116  113  114 1   
   117  113  119 1   
   118  113  120 1   
   119  114  115 1   
   120  114  116 2   
   121  115  121 1   
   122  115  122 1   
   123  123  124 1   
   124  123  135 1   
   125  124  125 1   
   126  124  127 1   
   127  124  136 1   
   128  125  126 2   
   129  125  144 1   
   130  127  128 1   
   131  127  137 1   
   132  127  138 1   
   133  128  129 ar  
   134  128  130 ar  
   135  129  131 ar  
   136  129  139 1   
   137  130  132 ar  
   138  130  140 1   
   139  131  133 ar  
   140  131  141 1   
   141  132  133 ar  
   142  132  142 1   
   143  133  134 1   
   144  134  143 1   
   145  144  145 1   
   146  144  153 1   
   147  145  146 1   
   148  145  148 1   
   149  145  154 1   
   150  146  147 2   
   151  146  159 1   
   152  148  149 1   
   153  148  155 1   
   154  148  156 1   
   155  149  150 1   
   156  149  157 1   
   157  149  158 1   
   158  150  151 1   
   159  150  152 1   
   160  159  160 1   
   161  159  168 1   
   162  160  161 1   
   163  160  163 1   
   164  160  169 1   
   165  161  162 2   
   166  161  174 1   
   167  163  164 1   
   168  163  170 1   
   169  163  171 1   
   170  164  165 1   
   171  164  172 1   
   172  164  173 1   
   173  165  166 1   
   174  165  167 1   
   175  174  175 1   
   176  174  179 1   
   177  175  176 1   
   178  175  177 1   
   179  175  178 1   
   180  181  182 1   
   181  181  183 1   
   182  184  185 1   
   183  184  186 1   
   184  187  188 1   
   185  187  189 1   
   186  190  191 1   
   187  190  192 1   
@<TRIPOS>SUBSTRUCTURE
     1 MOL         1 TEMP              0 ****  ****    0 ROOT
