@<TRIPOS>MOLECULE
MOL
  178   175     1     0     0
SMALL
resp


@<TRIPOS>ATOM
      1 C1          4.7460   -1.8450    2.9700 c3        1 MOL     -0.548003
      2 C2          6.1080   -1.1610    2.7650 c         1 MOL      0.653512
      3 O1          6.1520   -0.0680    2.2030 o         1 MOL     -0.596707
      4 H1          4.3700   -1.6140    3.9660 hc        1 MOL      0.146067
      5 H2          4.0400   -1.4810    2.2220 hc        1 MOL      0.146067
      6 H3          4.8610   -2.9240    2.8660 hc        1 MOL      0.146067
      7 N1          7.2350   -1.7890    3.0700 n         1 MOL     -0.476362
      8 C3          8.5710   -1.3150    2.6570 c3        1 MOL      0.048573
      9 C4          8.5980   -1.0600    1.1610 c         1 MOL      0.731651
     10 O2          8.3230   -2.0240    0.4210 o         1 MOL     -0.536707
     11 C5          9.4640   -2.4200    3.1100 c3        1 MOL     -0.291340
     12 C6         10.9160   -2.2530    2.6120 c         1 MOL      0.692573
     13 O3         11.4100   -1.1040    2.4300 o         1 MOL     -0.722571
     14 O4         11.5150   -3.3260    2.3200 o         1 MOL     -0.722571
     15 H4          7.1700   -2.6270    3.6290 hn        1 MOL      0.276883
     16 H5          8.7010   -0.3530    3.1550 h1        1 MOL      0.022417
     17 H6          9.0930   -3.3410    2.6490 hc        1 MOL      0.065608
     18 H7          9.4300   -2.5130    4.1970 hc        1 MOL      0.065608
     19 N2          8.8920    0.1940    0.6990 n         1 MOL     -0.578002
     20 C7          9.0170    0.4800   -0.7590 c3        1 MOL      0.319989
     21 C8          7.7210    0.2620   -1.5470 c         1 MOL      0.324430
     22 O5          7.8310    0.0540   -2.6940 o         1 MOL     -0.463288
     23 C9          9.4490    1.9850   -0.9230 c3        1 MOL     -0.366232
     24 H8          9.1390    0.9280    1.3600 hn        1 MOL      0.297357
     25 H9          9.7920   -0.1560   -1.1910 h1        1 MOL      0.051463
     26 H10         9.3200    2.2780   -1.9710 hc        1 MOL      0.085757
     27 H11         8.7850    2.4710   -0.2110 hc        1 MOL      0.085757
     28 H12        10.4130    2.2980   -0.5290 hc        1 MOL      0.085757
     29 N3          6.5290    0.3670   -0.8690 n         1 MOL     -0.508608
     30 C10         5.2390   -0.0780   -1.3930 c3        1 MOL      0.154266
     31 C11         4.7840    0.5520   -2.7100 c         1 MOL      0.241142
     32 O6          4.2250   -0.1080   -3.6180 o         1 MOL     -0.423238
     33 C12         5.3580   -1.5860   -1.3560 c3        1 MOL     -0.047042
     34 C13         4.0270   -2.3510   -1.2400 c         1 MOL      0.775285
     35 O7          3.9270   -3.3080   -2.0450 o         1 MOL     -0.845086
     36 O8          3.1020   -2.0570   -0.4290 o         1 MOL     -0.845086
     37 H13         6.5850    0.6780    0.0890 hn        1 MOL      0.281636
     38 H14         4.5320    0.1920   -0.6030 h1        1 MOL      0.069649
     39 H15         5.7960   -1.7270   -0.3670 hc        1 MOL      0.065009
     40 H16         6.0370   -2.0180   -2.1010 hc        1 MOL      0.065009
     41 N4          5.0390    1.8870   -2.8390 n         1 MOL     -0.035326
     42 C14         4.8800    2.8250   -3.9830 c3        1 MOL     -0.428335
     43 C15         3.4810    3.4260   -4.1380 c         1 MOL      0.643131
     44 O9          3.0350    3.6210   -5.2280 o         1 MOL     -0.560941
     45 H17         5.2500    2.4080   -1.9890 hn        1 MOL      0.174132
     46 H18         5.0780    2.2250   -4.8710 h1        1 MOL      0.162584
     47 H19         5.6340    3.6080   -3.8450 h1        1 MOL      0.162584
     48 N5          2.8360    3.5250   -3.0170 n         1 MOL     -0.435590
     49 C16         1.4150    3.9470   -2.9880 c3        1 MOL      0.006853
     50 C17         1.2720    5.1660   -2.0550 c         1 MOL      0.451588
     51 O10         1.9600    5.1740   -1.0610 o         1 MOL     -0.503115
     52 C18         0.4870    2.7600   -2.5930 c3        1 MOL     -0.048534
     53 C19        -0.9670    2.9060   -2.7230 c         1 MOL      0.684585
     54 N6         -1.6860    2.8240   -1.5980 n         1 MOL     -0.861695
     55 O11        -1.4100    3.1520   -3.8140 o         1 MOL     -0.587154
     56 H20         3.3200    3.2640   -2.1660 hn        1 MOL      0.259737
     57 H21         1.0930    4.2040   -3.9960 h1        1 MOL      0.052076
     58 H22         0.7800    2.3820   -1.6150 hc        1 MOL      0.072076
     59 H23         0.6950    1.8900   -3.2350 hc        1 MOL      0.072076
     60 H24        -1.1160    2.7450   -0.7720 hn        1 MOL      0.367397
     61 H25        -2.6730    3.0520   -1.6180 hn        1 MOL      0.367397
     62 N7          0.3660    6.0430   -2.3430 n         1 MOL     -0.260406
     63 C20        -0.0910    7.2030   -1.5580 c3        1 MOL     -0.315945
     64 C21        -1.4210    6.9260   -0.8250 c         1 MOL      0.606241
     65 O12        -2.3590    6.5100   -1.4340 o         1 MOL     -0.514510
     66 H26        -0.1530    5.9320   -3.2070 hn        1 MOL      0.272691
     67 H27        -0.3500    7.9970   -2.2510 h1        1 MOL      0.131165
     68 H28         0.5970    7.4620   -0.7630 h1        1 MOL      0.131165
     69 N8         -1.5570    7.2050    0.4690 n         1 MOL     -0.334908
     70 C22        -2.8180    7.0780    1.2740 c3        1 MOL     -0.458680
     71 C23        -3.0660    5.7060    1.8950 c         1 MOL      0.731702
     72 O13        -4.1310    5.4720    2.4000 o         1 MOL     -0.586449
     73 C24        -2.8170    8.1340    2.4200 c3        1 MOL      0.577275
     74 C25        -1.7340    8.0030    3.4900 c3        1 MOL     -0.273439
     75 O14        -2.6720    9.4400    1.8980 oh        1 MOL     -0.649747
     76 H29        -0.8070    7.7190    0.9170 hn        1 MOL      0.253815
     77 H30        -3.6540    7.2500    0.6090 h1        1 MOL      0.200164
     78 H31        -3.7450    8.1290    2.9950 h1        1 MOL      0.016600
     79 H32        -1.7310    9.5540    1.7280 ho        1 MOL      0.368265
     80 H33        -1.3850    8.9610    3.8870 hc        1 MOL      0.054371
     81 H34        -2.2000    7.4290    4.3020 hc        1 MOL      0.054371
     82 H35        -0.9380    7.3690    3.1070 hc        1 MOL      0.054371
     83 N9         -2.0900    4.7730    1.8920 n         1 MOL     -0.488428
     84 C26        -2.2850    3.4120    2.5110 c3        1 MOL     -0.040997
     85 C27        -1.7270    2.3040    1.5740 c         1 MOL      0.584639
     86 O15        -0.7040    2.4810    0.9410 o         1 MOL     -0.490689
     87 C28        -1.7170    3.2890    3.8900 c3        1 MOL      0.141585
     88 C29        -2.2910    4.3060    4.9140 c3        1 MOL     -0.060664
     89 C30        -1.5620    1.9230    4.4070 c3        1 MOL     -0.420941
     90 C31        -3.6150    3.7880    5.4500 c3        1 MOL     -0.025918
     91 H36        -1.1610    4.8610    1.4850 hn        1 MOL      0.268880
     92 H37        -3.3670    3.2270    2.5470 h1        1 MOL      0.091909
     93 H38        -0.6750    3.5810    3.7030 hc        1 MOL      0.001362
     94 H39        -2.3990    5.3120    4.5110 hc        1 MOL      0.030254
     95 H40        -1.5870    4.3880    5.7370 hc        1 MOL      0.030254
     96 H41        -2.5290    1.4300    4.4190 hc        1 MOL      0.119062
     97 H42        -0.7270    1.4600    3.8680 hc        1 MOL      0.119062
     98 H43        -1.3680    2.0320    5.4710 hc        1 MOL      0.119062
     99 H44        -4.2600    3.3090    4.7250 hc        1 MOL      0.005507
    100 H45        -3.3410    2.9890    6.1510 hc        1 MOL      0.005507
    101 H46        -4.1090    4.5900    6.0010 hc        1 MOL      0.005507
    102 N10        -2.4120    1.2080    1.4650 n         1 MOL     -0.576594
    103 C32        -1.9620    0.1190    0.5610 c3        1 MOL      0.337937
    104 C33        -3.1890   -0.5490   -0.0790 c         1 MOL      0.411756
    105 O16        -3.1410   -1.7020   -0.4620 o         1 MOL     -0.418629
    106 C34        -1.0710   -0.9230    1.3110 c3        1 MOL     -0.501340
    107 C35        -0.3270   -1.8970    0.4230 c         1 MOL      0.887682
    108 O17        -0.1640   -1.6630   -0.8130 o         1 MOL     -0.754771
    109 O18         0.1010   -2.9640    0.9310 o         1 MOL     -0.754771
    110 H47        -3.2560    1.1080    2.0060 hn        1 MOL      0.304209
    111 H48        -1.3440    0.5650   -0.2150 h1        1 MOL      0.026677
    112 H49        -1.6590   -1.3980    2.0900 hc        1 MOL      0.132369
    113 H50        -0.3140   -0.2730    1.7720 hc        1 MOL      0.132369
    114 N11        -4.2950    0.1150   -0.2660 n         1 MOL     -0.386597
    115 C36        -5.5010   -0.4930   -0.8970 c3        1 MOL      0.098831
    116 C37        -6.1390   -1.6190   -0.0160 c         1 MOL      0.257498
    117 O19        -6.3220   -1.3910    1.1610 o         1 MOL     -0.511355
    118 C38        -6.6270    0.5200   -1.1330 c3        1 MOL     -0.108649
    119 C39        -7.8130   -0.0390   -1.8690 ca        1 MOL      0.098868
    120 C40        -7.6690   -0.1220   -3.2510 ca        1 MOL     -0.189306
    121 C41        -8.9190   -0.4590   -1.2000 ca        1 MOL     -0.189306
    122 C42        -8.6880   -0.6300   -3.9510 ca        1 MOL     -0.081124
    123 C43       -10.0550   -0.9110   -1.9420 ca        1 MOL     -0.081124
    124 C44        -9.9290   -0.9270   -3.3510 ca        1 MOL     -0.146577
    125 H51        -4.3420    1.0220    0.1850 hn        1 MOL      0.225423
    126 H52        -5.2580   -0.9000   -1.8660 h1        1 MOL      0.072193
    127 H53        -6.2010    1.3680   -1.6690 hc        1 MOL      0.064248
    128 H54        -7.0250    1.0460   -0.2720 hc        1 MOL      0.064248
    129 H55        -6.7380    0.1550   -3.7370 ha        1 MOL      0.134863
    130 H56        -9.0030   -0.3250   -0.1300 ha        1 MOL      0.134863
    131 H57        -8.5330   -0.7820   -5.0100 ha        1 MOL      0.103658
    132 H58       -11.0050   -1.1380   -1.4660 ha        1 MOL      0.103658
    133 H59       -10.7360   -1.1720   -4.0210 ha        1 MOL      0.103683
    134 N12        -6.5480   -2.7550   -0.5420 n         1 MOL      0.083318
    135 C45        -7.0470   -3.8360    0.2740 c3        1 MOL     -0.051707
    136 C46        -6.1220   -4.5690    1.1980 c         1 MOL      0.374533
    137 O20        -6.5750   -5.3330    2.0260 o         1 MOL     -0.555585
    138 C47        -7.5200   -4.8490   -0.7550 c3        1 MOL      0.015930
    139 C48        -6.4950   -4.7580   -1.9540 c3        1 MOL     -0.016762
    140 C49        -6.2750   -3.2260   -1.9330 c3        1 MOL     -0.228030
    141 H60        -7.8780   -3.4000    0.8380 h1        1 MOL      0.066868
    142 H61        -7.6290   -5.8490   -0.3540 hc        1 MOL      0.010680
    143 H62        -8.5090   -4.5470   -1.0980 hc        1 MOL      0.010680
    144 H63        -5.5950   -5.3080   -1.6780 hc        1 MOL      0.036335
    145 H64        -6.9360   -5.1560   -2.8760 hc        1 MOL      0.036335
    146 H65        -5.2700   -2.9620   -2.2640 h1        1 MOL      0.102270
    147 H66        -6.9790   -2.7590   -2.6170 h1        1 MOL      0.102270
    148 N13        -4.8630   -4.2670    1.0460 n         1 MOL     -0.028827
    149 C50        -3.7690   -4.9740    1.7570 c3        1 MOL     -0.192677
    150 C51        -3.5510   -4.4200    3.2140 c         1 MOL      0.399196
    151 O21        -2.8310   -5.0660    3.9770 o         1 MOL     -0.517580
    152 C52        -2.4490   -4.8650    0.9850 c3        1 MOL      0.208499
    153 C53        -2.4550   -5.5900   -0.3470 c3        1 MOL     -0.166926
    154 C54        -1.0560   -5.4270   -0.9730 c         1 MOL      0.796411
    155 O22        -0.0450   -5.7770   -0.3650 o         1 MOL     -0.813642
    156 O23        -0.8600   -4.8640   -2.0200 o         1 MOL     -0.813642
    157 H67        -4.7280   -3.4980    0.4080 hn        1 MOL      0.116103
    158 H68        -4.1600   -5.9700    1.9270 h1        1 MOL      0.124380
    159 H69        -1.6640   -5.3430    1.5690 hc        1 MOL      0.000549
    160 H70        -2.2740   -3.8100    0.7920 hc        1 MOL      0.000549
    161 H71        -3.2510   -5.2580   -1.0170 hc        1 MOL      0.002030
    162 H72        -2.6800   -6.6550   -0.2530 hc        1 MOL      0.002030
    163 N14        -4.1430   -3.2880    3.5870 n         1 MOL     -0.167534
    164 C55        -4.0040   -2.7000    4.9450 c3        1 MOL     -0.105821
    165 H73        -3.3740   -3.3460    5.5570 h1        1 MOL      0.059970
    166 H74        -3.5460   -1.7140    4.8690 h1        1 MOL      0.059970
    167 H75        -4.9870   -2.6100    5.4060 h1        1 MOL      0.059970
    168 H76        -4.7810   -2.8150    2.9600 hn        1 MOL      0.181507
    169 Ca1         1.4910   -3.8900   -1.2450 Ca        1 MOL      1.755974
    170 O24         2.4470   -6.2560   -2.1340 oh        1 MOL     -0.725262
    171 H77         2.9150   -6.9550   -1.6860 ho        1 MOL      0.372999
    172 H78         2.3710   -6.5570   -3.0370 ho        1 MOL      0.372999
    173 O25         1.1720   -3.4830   -3.8870 oh        1 MOL     -0.725262
    174 H79         1.3570   -2.8110   -4.5470 ho        1 MOL      0.372999
    175 H80         1.4000   -4.3030   -4.3180 ho        1 MOL      0.372999
    176 O26         2.5760   -4.7320    0.9610 oh        1 MOL     -0.725262
    177 H81         1.9290   -4.3250    1.5360 ho        1 MOL      0.372999
    178 H82         3.2440   -5.0840    1.5670 ho        1 MOL      0.372999
@<TRIPOS>BOND
     1    1    2 1   
     2    1    4 1   
     3    1    5 1   
     4    1    6 1   
     5    2    3 2   
     6    2    7 1   
     7    7    8 1   
     8    7   15 1   
     9    8    9 1   
    10    8   11 1   
    11    8   16 1   
    12    9   10 2   
    13    9   19 1   
    14   11   12 1   
    15   11   17 1   
    16   11   18 1   
    17   12   13 1   
    18   12   14 1   
    19   19   20 1   
    20   19   24 1   
    21   20   21 1   
    22   20   23 1   
    23   20   25 1   
    24   21   22 2   
    25   21   29 1   
    26   23   26 1   
    27   23   27 1   
    28   23   28 1   
    29   29   30 1   
    30   29   37 1   
    31   30   31 1   
    32   30   33 1   
    33   30   38 1   
    34   31   32 2   
    35   31   41 1   
    36   33   34 1   
    37   33   39 1   
    38   33   40 1   
    39   34   35 1   
    40   34   36 1   
    41   41   42 1   
    42   41   45 1   
    43   42   43 1   
    44   42   46 1   
    45   42   47 1   
    46   43   44 2   
    47   43   48 1   
    48   48   49 1   
    49   48   56 1   
    50   49   50 1   
    51   49   52 1   
    52   49   57 1   
    53   50   51 2   
    54   50   62 1   
    55   52   53 1   
    56   52   58 1   
    57   52   59 1   
    58   53   54 1   
    59   53   55 2   
    60   54   60 1   
    61   54   61 1   
    62   62   63 1   
    63   62   66 1   
    64   63   64 1   
    65   63   67 1   
    66   63   68 1   
    67   64   65 2   
    68   64   69 1   
    69   69   70 1   
    70   69   76 1   
    71   70   71 1   
    72   70   73 1   
    73   70   77 1   
    74   71   72 2   
    75   71   83 1   
    76   73   74 1   
    77   73   75 1   
    78   73   78 1   
    79   74   80 1   
    80   74   81 1   
    81   74   82 1   
    82   75   79 1   
    83   83   84 1   
    84   83   91 1   
    85   84   85 1   
    86   84   87 1   
    87   84   92 1   
    88   85   86 2   
    89   85  102 1   
    90   87   88 1   
    91   87   89 1   
    92   87   93 1   
    93   88   90 1   
    94   88   94 1   
    95   88   95 1   
    96   89   96 1   
    97   89   97 1   
    98   89   98 1   
    99   90   99 1   
   100   90  100 1   
   101   90  101 1   
   102  102  103 1   
   103  102  110 1   
   104  103  104 1   
   105  103  106 1   
   106  103  111 1   
   107  104  105 2   
   108  104  114 1   
   109  106  107 1   
   110  106  112 1   
   111  106  113 1   
   112  107  108 1   
   113  107  109 1   
   114  114  115 1   
   115  114  125 1   
   116  115  116 1   
   117  115  118 1   
   118  115  126 1   
   119  116  117 2   
   120  116  134 1   
   121  118  119 1   
   122  118  127 1   
   123  118  128 1   
   124  119  120 ar  
   125  119  121 ar  
   126  120  122 ar  
   127  120  129 1   
   128  121  123 ar  
   129  121  130 1   
   130  122  124 ar  
   131  122  131 1   
   132  123  124 ar  
   133  123  132 1   
   134  124  133 1   
   135  134  135 1   
   136  134  140 1   
   137  135  136 1   
   138  135  138 1   
   139  135  141 1   
   140  136  137 2   
   141  136  148 1   
   142  138  139 1   
   143  138  142 1   
   144  138  143 1   
   145  139  140 1   
   146  139  144 1   
   147  139  145 1   
   148  140  146 1   
   149  140  147 1   
   150  148  149 1   
   151  148  157 1   
   152  149  150 1   
   153  149  152 1   
   154  149  158 1   
   155  150  151 2   
   156  150  163 1   
   157  152  153 1   
   158  152  159 1   
   159  152  160 1   
   160  153  154 1   
   161  153  161 1   
   162  153  162 1   
   163  154  155 1   
   164  154  156 1   
   165  163  164 1   
   166  163  168 1   
   167  164  165 1   
   168  164  166 1   
   169  164  167 1   
   170  170  171 1   
   171  170  172 1   
   172  173  174 1   
   173  173  175 1   
   174  176  177 1   
   175  176  178 1   
@<TRIPOS>SUBSTRUCTURE
     1 MOL         1 TEMP              0 ****  ****    0 ROOT
