@<TRIPOS>MOLECULE
MOL
  186   183     1     0     0
SMALL
resp


@<TRIPOS>ATOM
      1 C1         11.9770    4.9410   -3.0860 c3        1 MOL     -0.292350
      2 C2         11.4500    3.8090   -2.2300 c         1 MOL      0.559689
      3 O1         11.7110    2.5900   -2.3840 o         1 MOL     -0.603245
      4 H1         12.5360    4.5300   -3.9270 hc        1 MOL      0.084439
      5 H2         11.1420    5.5340   -3.4600 hc        1 MOL      0.084439
      6 H3         12.6340    5.5730   -2.4880 hc        1 MOL      0.084439
      7 N1         10.6020    4.0790   -1.2540 n         1 MOL     -0.015312
      8 C3         10.2330    3.1960   -0.1030 c3        1 MOL     -0.759084
      9 C4          8.9880    2.3330   -0.4380 c         1 MOL      0.864345
     10 O2          8.0290    2.9450   -0.8650 o         1 MOL     -0.746301
     11 C5         10.1370    3.9410    1.1910 c3        1 MOL      0.096174
     12 C6          9.2120    5.1690    1.2100 c         1 MOL      0.748297
     13 O3          8.4710    5.5740    0.2060 o         1 MOL     -0.733612
     14 O4          9.1320    5.8030    2.3070 o         1 MOL     -0.733612
     15 H4         10.2420    5.0250   -1.2390 hn        1 MOL      0.091917
     16 H5         10.9600    2.3950    0.0010 h1        1 MOL      0.220057
     17 H6         11.0650    4.4810    1.3820 hc        1 MOL      0.068905
     18 H7          9.8670    3.2740    2.0240 hc        1 MOL      0.068905
     19 N2          9.0050    1.0300   -0.2590 n         1 MOL     -0.428146
     20 C7          7.8950    0.1710   -0.6980 c3        1 MOL      0.017643
     21 C8          6.7540    0.1350    0.3600 c         1 MOL      0.732272
     22 O5          6.9350    0.0430    1.5850 o         1 MOL     -0.557248
     23 C9          8.4670   -1.2180   -1.0780 c3        1 MOL     -0.339734
     24 C10         7.4180   -2.2420   -1.5590 c3        1 MOL      0.095323
     25 C11         8.0180   -3.6300   -1.9210 c3        1 MOL      0.039077
     26 C12         6.9290   -4.5260   -2.5630 c3        1 MOL      0.077350
     27 N3          7.4670   -5.8070   -2.9840 n4        1 MOL     -0.321764
     28 H8          9.8020    0.4930    0.0450 hn        1 MOL      0.283521
     29 H9          7.4910    0.5690   -1.6260 h1        1 MOL      0.116880
     30 H10         8.9640   -1.6570   -0.2120 hc        1 MOL      0.118146
     31 H11         9.1640   -1.0240   -1.9020 hc        1 MOL      0.118146
     32 H12         6.9270   -1.8700   -2.4540 hc        1 MOL      0.006038
     33 H13         6.6490   -2.3970   -0.8110 hc        1 MOL      0.006038
     34 H14         8.5730   -4.0950   -1.1110 hc        1 MOL      0.007180
     35 H15         8.7290   -3.4320   -2.7270 hc        1 MOL      0.007180
     36 H16         6.5020   -3.9530   -3.3830 hx        1 MOL      0.064017
     37 H17         6.0930   -4.6950   -1.8860 hx        1 MOL      0.064017
     38 H18         7.9330   -6.2780   -2.2230 hn        1 MOL      0.271163
     39 H19         6.7050   -6.4350   -3.1770 hn        1 MOL      0.271163
     40 H20         8.1470   -5.7040   -3.7190 hn        1 MOL      0.271163
     41 N4          5.5130    0.1460   -0.1140 n         1 MOL     -0.768289
     42 C13         4.3210    0.0530    0.7780 c3        1 MOL      0.623081
     43 C14         3.0240   -0.4360    0.1290 c         1 MOL      0.158512
     44 O6          2.8230   -0.2330   -1.0680 o         1 MOL     -0.475751
     45 C15         4.0490    1.4320    1.4470 c3        1 MOL      0.234310
     46 C16         4.6510    2.6140    0.7230 c         1 MOL      0.407386
     47 O7          4.1780    2.9950   -0.3940 o         1 MOL     -0.685266
     48 O8          5.6390    3.2460    1.1900 o         1 MOL     -0.685266
     49 H21         5.4410    0.3910   -1.0940 hn        1 MOL      0.286560
     50 H22         4.5520   -0.5820    1.6370 h1        1 MOL     -0.042957
     51 H23         4.4500    1.4320    2.4540 hc        1 MOL     -0.038428
     52 H24         2.9620    1.5220    1.5020 hc        1 MOL     -0.038428
     53 N5          1.9810   -0.8930    0.8390 n         1 MOL     -0.280881
     54 C17         1.9120   -1.1960    2.2390 c3        1 MOL     -0.165249
     55 C18         2.1680   -2.6320    2.6070 c         1 MOL      0.569983
     56 O9          2.6330   -3.5270    1.8790 o         1 MOL     -0.568921
     57 H25         1.2960   -1.4000    0.3100 hn        1 MOL      0.312032
     58 H26         0.8750   -0.9070    2.4320 h1        1 MOL      0.097880
     59 H27         2.4440   -0.5070    2.8880 h1        1 MOL      0.097880
     60 N6          1.7940   -2.9810    3.8730 n         1 MOL     -0.345876
     61 C19         1.7420   -4.3110    4.4680 c3        1 MOL      0.082483
     62 C20         0.6420   -5.1620    3.7330 c         1 MOL      0.517303
     63 O10        -0.4570   -4.6620    3.5610 o         1 MOL     -0.517866
     64 C21         1.5750   -4.1600    5.9890 c3        1 MOL     -0.362034
     65 C22         2.8410   -3.3440    6.5950 c         1 MOL      0.654505
     66 O11         2.7980   -2.0950    6.9180 o         1 MOL     -0.618498
     67 O12         3.9480   -3.9620    6.5590 o         1 MOL     -0.618498
     68 H28         1.5500   -2.2420    4.5030 hn        1 MOL      0.255270
     69 H29         2.6830   -4.8410    4.3040 h1        1 MOL      0.038442
     70 H30         1.4880   -5.1290    6.4900 hc        1 MOL      0.090184
     71 H31         0.6690   -3.5630    6.0710 hc        1 MOL      0.090184
     72 N7          0.9870   -6.3280    3.2140 n         1 MOL     -0.369796
     73 C23         0.0720   -7.1910    2.4080 c3        1 MOL     -0.088981
     74 C24        -0.4100   -6.5880    1.0600 c         1 MOL      0.449550
     75 O13        -1.1940   -7.2520    0.3810 o         1 MOL     -0.575850
     76 H32         1.8290   -6.7480    3.5640 hn        1 MOL      0.271977
     77 H33        -0.8120   -7.3800    3.0230 h1        1 MOL      0.100557
     78 H34         0.4740   -8.1800    2.1990 h1        1 MOL      0.100557
     79 N8          0.1560   -5.5030    0.5940 n         1 MOL     -0.097572
     80 C25        -0.0440   -5.0450   -0.8030 c3        1 MOL     -0.019604
     81 C26        -0.2890   -3.5160   -0.6960 c         1 MOL      0.357097
     82 O14        -0.1040   -2.8570    0.3870 o         1 MOL     -0.463357
     83 C27         1.3030   -5.2600   -1.6370 c3        1 MOL      0.474535
     84 C28         1.6970   -6.7580   -1.6650 c3        1 MOL     -0.411172
     85 O15         1.0830   -5.0010   -2.9710 oh        1 MOL     -0.702901
     86 H35         0.7670   -5.0470    1.2550 hn        1 MOL      0.037602
     87 H36        -0.7190   -5.7260   -1.3090 h1        1 MOL      0.067063
     88 H37         2.1360   -4.6270   -1.3370 h1        1 MOL      0.032509
     89 H38         0.6260   -5.7200   -3.4110 ho        1 MOL      0.417357
     90 H39         2.3980   -6.9090   -2.4820 hc        1 MOL      0.095259
     91 H40         2.2970   -6.9760   -0.7870 hc        1 MOL      0.095259
     92 H41         0.7820   -7.3400   -1.7750 hc        1 MOL      0.095259
     93 N9         -0.6870   -2.9350   -1.7880 n         1 MOL     -0.243532
     94 C29        -1.0940   -1.5000   -1.8770 c3        1 MOL     -0.291071
     95 C30        -2.6130   -1.3970   -1.4650 c         1 MOL      0.800720
     96 O16        -3.0940   -0.3570   -1.0300 o         1 MOL     -0.579849
     97 C31        -0.8350   -0.9320   -3.3320 c3        1 MOL      0.086121
     98 C32         0.4630   -1.5950   -3.8250 c3        1 MOL      0.057165
     99 C33        -0.7240    0.5850   -3.2720 c3        1 MOL     -0.225347
    100 C34         0.8900   -0.9780   -5.1570 c3        1 MOL     -0.267648
    101 H42        -0.8510   -3.5170   -2.5950 hn        1 MOL      0.221108
    102 H43        -0.5990   -0.9330   -1.0850 h1        1 MOL      0.137612
    103 H44        -1.6920   -1.1270   -3.9710 hc        1 MOL      0.021925
    104 H45         0.4150   -2.6770   -3.9640 hc        1 MOL      0.037413
    105 H46         1.3090   -1.4030   -3.1660 hc        1 MOL      0.037413
    106 H47         0.1270    0.8580   -2.6530 hc        1 MOL      0.081121
    107 H48        -0.6860    1.0820   -4.2470 hc        1 MOL      0.081121
    108 H49        -1.5440    1.0380   -2.7280 hc        1 MOL      0.081121
    109 H50         1.7130   -1.5460   -5.5720 hc        1 MOL      0.053364
    110 H51         0.0170   -1.0320   -5.8110 hc        1 MOL      0.053364
    111 H52         1.1000    0.0860   -5.0060 hc        1 MOL      0.053364
    112 N10        -3.3330   -2.4840   -1.4600 n         1 MOL     -0.571787
    113 C35        -4.6450   -2.5520   -0.9010 c3        1 MOL      0.042090
    114 C36        -5.6830   -2.0980   -1.8780 c         1 MOL      0.683142
    115 O17        -5.5560   -2.3890   -3.0480 o         1 MOL     -0.563105
    116 C37        -5.0490   -3.9820   -0.3560 c3        1 MOL      0.271306
    117 C38        -4.3100   -4.2350    0.9290 c3        1 MOL     -0.320695
    118 O18        -6.4150   -4.0370   -0.0800 oh        1 MOL     -0.654710
    119 H53        -2.9050   -3.3400   -1.7600 hn        1 MOL      0.265335
    120 H54        -4.7300   -1.8540   -0.0680 h1        1 MOL      0.096453
    121 H55        -4.7660   -4.7310   -1.0990 h1        1 MOL      0.017034
    122 H56        -6.5860   -4.9800    0.0200 ho        1 MOL      0.418775
    123 H57        -3.2630   -4.1930    0.6490 hc        1 MOL      0.104631
    124 H58        -4.5040   -3.3700    1.5640 hc        1 MOL      0.104631
    125 H59        -4.4650   -5.2350    1.3400 hc        1 MOL      0.104631
    126 N11        -6.6970   -1.3720   -1.4410 n         1 MOL     -0.727592
    127 C39        -7.7650   -0.9090   -2.3900 c3        1 MOL      0.165328
    128 C40        -8.2300    0.4880   -2.1970 c         1 MOL      0.598472
    129 O19        -8.8030    1.0950   -3.1550 o         1 MOL     -0.599489
    130 C41        -8.9510   -1.8900   -2.4430 c3        1 MOL      0.400219
    131 C42        -9.9920   -1.6380   -3.5300 c3        1 MOL     -0.212346
    132 O20        -9.6780   -1.7920   -1.2540 oh        1 MOL     -0.690218
    133 H60        -6.8620   -1.3970   -0.4470 hn        1 MOL      0.369935
    134 H61        -7.3320   -0.9730   -3.4020 h1        1 MOL      0.076840
    135 H62        -8.5610   -2.8680   -2.7320 h1        1 MOL     -0.014351
    136 H63        -9.1390   -2.0060   -0.4860 ho        1 MOL      0.373388
    137 H64       -10.8940   -2.2510   -3.4770 hc        1 MOL      0.056275
    138 H65       -10.3390   -0.6070   -3.5750 hc        1 MOL      0.056275
    139 H66        -9.5180   -1.8030   -4.4920 hc        1 MOL      0.056275
    140 N12        -8.0120    1.0060   -0.9800 n         1 MOL     -0.506918
    141 C43        -8.3530    2.4020   -0.5140 c3        1 MOL      0.183818
    142 C44        -7.2830    3.0160    0.4510 c         1 MOL      0.528116
    143 O21        -6.4220    2.3400    0.9450 o         1 MOL     -0.483858
    144 C45        -9.6610    2.2120    0.2890 c3        1 MOL     -0.297756
    145 C46       -10.9510    2.0400   -0.5160 c3        1 MOL      0.068803
    146 C47       -12.1990    1.7100    0.2290 c3        1 MOL     -0.115653
    147 C48       -12.1400    0.2310    0.6830 c3        1 MOL      0.127457
    148 N13       -13.5300   -0.1590    1.0290 n4        1 MOL     -0.293489
    149 H67        -7.6750    0.4110   -0.2280 hn        1 MOL      0.240479
    150 H68        -8.4390    3.1090   -1.3300 h1        1 MOL      0.078045
    151 H69        -9.8330    3.1680    0.7940 hc        1 MOL      0.084233
    152 H70        -9.5320    1.4080    1.0100 hc        1 MOL      0.084233
    153 H71       -10.8280    1.2700   -1.2860 hc        1 MOL      0.039009
    154 H72       -11.0830    2.9790   -1.0540 hc        1 MOL      0.039009
    155 H73       -13.0270    1.7150   -0.4800 hc        1 MOL      0.045122
    156 H74       -12.2390    2.3600    1.1020 hc        1 MOL      0.045122
    157 H75       -11.6000    0.1640    1.6220 hx        1 MOL      0.071900
    158 H76       -11.7630   -0.4190   -0.0980 hx        1 MOL      0.071900
    159 H77       -13.5560   -0.9510    1.6650 hn        1 MOL      0.241803
    160 H78       -13.9600    0.5610    1.5990 hn        1 MOL      0.241803
    161 H79       -14.0320   -0.4230    0.1920 hn        1 MOL      0.241803
    162 N14        -7.3150    4.3200    0.6270 n         1 MOL     -0.514528
    163 C49        -6.3600    5.0590    1.4490 c3        1 MOL      0.206787
    164 C50        -4.9330    4.5980    1.3770 c         1 MOL      0.373232
    165 O22        -4.4020    4.3160    2.3920 o         1 MOL     -0.522779
    166 C51        -6.5850    6.5400    1.3520 c3        1 MOL     -0.033290
    167 C52        -6.0830    7.3870    2.4910 c3        1 MOL     -0.185619
    168 C53        -6.4970    8.8430    2.3610 c         1 MOL      0.671703
    169 O23        -5.6480    9.7900    2.3360 o         1 MOL     -0.638851
    170 O24        -7.7260    9.1140    2.1420 o         1 MOL     -0.638851
    171 H80        -7.8920    4.9290    0.0560 hn        1 MOL      0.269259
    172 H81        -6.7090    4.6660    2.4030 h1        1 MOL      0.052617
    173 H82        -7.6540    6.6920    1.2690 hc        1 MOL      0.015482
    174 H83        -6.1480    6.8170    0.3930 hc        1 MOL      0.015482
    175 H84        -4.9980    7.3160    2.4830 hc        1 MOL      0.042444
    176 H85        -6.3320    6.9550    3.4570 hc        1 MOL      0.042444
    177 N15        -4.2050    4.5120    0.2710 n         1 MOL     -0.246794
    178 C54        -4.5590    4.8290   -1.1350 c3        1 MOL     -0.094013
    179 H86        -3.8510    4.3430   -1.8060 h1        1 MOL      0.061360
    180 H87        -5.5660    4.4680   -1.3480 h1        1 MOL      0.061360
    181 H88        -4.5200    5.9080   -1.2860 h1        1 MOL      0.061360
    182 H89        -3.2580    4.3270    0.5700 hn        1 MOL      0.254679
    183 Ca1         6.0430    5.0390   -0.6130 Ca        1 MOL      1.725239
    184 O25         4.5520    4.5800   -2.8310 oh        1 MOL     -0.842795
    185 H90         3.7030    4.2710   -3.1720 ho        1 MOL      0.425106
    186 H91         5.0990    4.6820   -3.6080 ho        1 MOL      0.425106
@<TRIPOS>BOND
     1    1    2 1   
     2    1    4 1   
     3    1    5 1   
     4    1    6 1   
     5    2    3 2   
     6    2    7 1   
     7    7    8 1   
     8    7   15 1   
     9    8    9 1   
    10    8   11 1   
    11    8   16 1   
    12    9   10 2   
    13    9   19 1   
    14   11   12 1   
    15   11   17 1   
    16   11   18 1   
    17   12   13 1   
    18   12   14 1   
    19   19   20 1   
    20   19   28 1   
    21   20   21 1   
    22   20   23 1   
    23   20   29 1   
    24   21   22 2   
    25   21   41 1   
    26   23   24 1   
    27   23   30 1   
    28   23   31 1   
    29   24   25 1   
    30   24   32 1   
    31   24   33 1   
    32   25   26 1   
    33   25   34 1   
    34   25   35 1   
    35   26   27 1   
    36   26   36 1   
    37   26   37 1   
    38   27   38 1   
    39   27   39 1   
    40   27   40 1   
    41   41   42 1   
    42   41   49 1   
    43   42   43 1   
    44   42   45 1   
    45   42   50 1   
    46   43   44 2   
    47   43   53 1   
    48   45   46 1   
    49   45   51 1   
    50   45   52 1   
    51   46   47 1   
    52   46   48 1   
    53   53   54 1   
    54   53   57 1   
    55   54   55 1   
    56   54   58 1   
    57   54   59 1   
    58   55   56 2   
    59   55   60 1   
    60   60   61 1   
    61   60   68 1   
    62   61   62 1   
    63   61   64 1   
    64   61   69 1   
    65   62   63 2   
    66   62   72 1   
    67   64   65 1   
    68   64   70 1   
    69   64   71 1   
    70   65   66 1   
    71   65   67 1   
    72   72   73 1   
    73   72   76 1   
    74   73   74 1   
    75   73   77 1   
    76   73   78 1   
    77   74   75 2   
    78   74   79 1   
    79   79   80 1   
    80   79   86 1   
    81   80   81 1   
    82   80   83 1   
    83   80   87 1   
    84   81   82 2   
    85   81   93 1   
    86   83   84 1   
    87   83   85 1   
    88   83   88 1   
    89   84   90 1   
    90   84   91 1   
    91   84   92 1   
    92   85   89 1   
    93   93   94 1   
    94   93  101 1   
    95   94   95 1   
    96   94   97 1   
    97   94  102 1   
    98   95   96 2   
    99   95  112 1   
   100   97   98 1   
   101   97   99 1   
   102   97  103 1   
   103   98  100 1   
   104   98  104 1   
   105   98  105 1   
   106   99  106 1   
   107   99  107 1   
   108   99  108 1   
   109  100  109 1   
   110  100  110 1   
   111  100  111 1   
   112  112  113 1   
   113  112  119 1   
   114  113  114 1   
   115  113  116 1   
   116  113  120 1   
   117  114  115 2   
   118  114  126 1   
   119  116  117 1   
   120  116  118 1   
   121  116  121 1   
   122  117  123 1   
   123  117  124 1   
   124  117  125 1   
   125  118  122 1   
   126  126  127 1   
   127  126  133 1   
   128  127  128 1   
   129  127  130 1   
   130  127  134 1   
   131  128  129 2   
   132  128  140 1   
   133  130  131 1   
   134  130  132 1   
   135  130  135 1   
   136  131  137 1   
   137  131  138 1   
   138  131  139 1   
   139  132  136 1   
   140  140  141 1   
   141  140  149 1   
   142  141  142 1   
   143  141  144 1   
   144  141  150 1   
   145  142  143 2   
   146  142  162 1   
   147  144  145 1   
   148  144  151 1   
   149  144  152 1   
   150  145  146 1   
   151  145  153 1   
   152  145  154 1   
   153  146  147 1   
   154  146  155 1   
   155  146  156 1   
   156  147  148 1   
   157  147  157 1   
   158  147  158 1   
   159  148  159 1   
   160  148  160 1   
   161  148  161 1   
   162  162  163 1   
   163  162  171 1   
   164  163  164 1   
   165  163  166 1   
   166  163  172 1   
   167  164  165 2   
   168  164  177 1   
   169  166  167 1   
   170  166  173 1   
   171  166  174 1   
   172  167  168 1   
   173  167  175 1   
   174  167  176 1   
   175  168  169 1   
   176  168  170 1   
   177  177  178 1   
   178  177  182 1   
   179  178  179 1   
   180  178  180 1   
   181  178  181 1   
   182  184  185 1   
   183  184  186 1   
@<TRIPOS>SUBSTRUCTURE
     1 MOL         1 TEMP              0 ****  ****    0 ROOT
