@<TRIPOS>MOLECULE
MOL
  186   183     1     0     0
SMALL
resp


@<TRIPOS>ATOM
      1 C1         12.1030    4.2070   -4.0970 c3        1 MOL     -0.406454
      2 C2         11.6170    3.1200   -3.0960 c         1 MOL      0.666135
      3 O1         11.3070    1.9970   -3.4510 o         1 MOL     -0.608750
      4 H1         11.3640    4.3280   -4.8890 hc        1 MOL      0.108837
      5 H2         12.2300    5.1540   -3.5730 hc        1 MOL      0.108837
      6 H3         13.0540    3.9020   -4.5330 hc        1 MOL      0.108837
      7 N1         11.4430    3.4880   -1.8600 n         1 MOL     -0.179541
      8 C3         11.0020    2.5420   -0.8080 c3        1 MOL     -0.552743
      9 C4          9.5380    2.1380   -0.8470 c         1 MOL      0.875568
     10 O2          8.6000    2.9370   -0.7520 o         1 MOL     -0.812806
     11 C5         11.3390    3.0060    0.6610 c3        1 MOL     -0.178274
     12 C6         11.0280    4.4710    1.0520 c         1 MOL      1.006775
     13 O3         10.3130    5.2020    0.3560 o         1 MOL     -0.781186
     14 O4         11.5110    4.9180    2.0670 o         1 MOL     -0.781186
     15 H4         11.5490    4.4750   -1.6490 hn        1 MOL      0.144742
     16 H5         11.6180    1.6460   -0.8760 h1        1 MOL      0.207097
     17 H6         12.4260    2.8720    0.7150 hc        1 MOL      0.074385
     18 H7         10.8460    2.2980    1.3250 hc        1 MOL      0.074385
     19 N2          9.3740    0.8380   -0.9390 n         1 MOL     -0.335199
     20 C7          8.0980    0.2030   -1.1970 c3        1 MOL     -0.029606
     21 C8          7.0470    0.3890   -0.0580 c         1 MOL      0.704457
     22 O5          7.3570    0.1910    1.1270 o         1 MOL     -0.549922
     23 C9          8.2260   -1.2670   -1.6250 c3        1 MOL     -0.440208
     24 C10         7.0960   -1.9370   -2.4990 c3        1 MOL     -0.005941
     25 C11         7.4030   -3.3860   -2.9310 c3        1 MOL      0.052725
     26 C12         6.2240   -3.9810   -3.7530 c3        1 MOL     -0.172113
     27 N3          5.1010   -4.4100   -2.9140 n4        1 MOL     -0.297156
     28 H8         10.1730    0.2250   -1.0240 hn        1 MOL      0.250835
     29 H9          7.6920    0.7080   -2.0740 h1        1 MOL      0.103224
     30 H10         8.5240   -1.7800   -0.7070 hc        1 MOL      0.154147
     31 H11         9.0830   -1.2960   -2.3130 hc        1 MOL      0.154147
     32 H12         7.0050   -1.3240   -3.4030 hc        1 MOL      0.052623
     33 H13         6.1230   -1.9020   -2.0150 hc        1 MOL      0.052623
     34 H14         7.4790   -4.0090   -2.0440 hc        1 MOL      0.042866
     35 H15         8.3840   -3.4500   -3.3950 hc        1 MOL      0.042866
     36 H16         6.6670   -4.7490   -4.3710 hx        1 MOL      0.130446
     37 H17         5.8730   -3.2290   -4.4570 hx        1 MOL      0.130446
     38 H18         4.2520   -4.5370   -3.4590 hn        1 MOL      0.325570
     39 H19         5.2040   -5.3440   -2.5560 hn        1 MOL      0.325570
     40 H20         5.0310   -3.7850   -2.1280 hn        1 MOL      0.325570
     41 N4          5.7750    0.7000   -0.4200 n         1 MOL     -0.573428
     42 C13         4.7260    0.8770    0.5570 c3        1 MOL      0.477546
     43 C14         3.4760    0.0170    0.1500 c         1 MOL      0.225691
     44 O6          2.8460    0.3290   -0.8620 o         1 MOL     -0.515030
     45 C15         4.3100    2.3620    0.7920 c3        1 MOL     -0.172646
     46 C16         5.4790    3.3650    0.5590 c         1 MOL      0.762108
     47 O7          5.5830    4.0270   -0.5190 o         1 MOL     -0.802665
     48 O8          6.2520    3.6490    1.4620 o         1 MOL     -0.802665
     49 H21         5.5960    0.8080   -1.4060 hn        1 MOL      0.259970
     50 H22         5.0090    0.5910    1.5600 h1        1 MOL      0.008310
     51 H23         4.0210    2.4510    1.8380 hc        1 MOL      0.055519
     52 H24         3.5770    2.7690    0.0970 hc        1 MOL      0.055519
     53 N5          3.0190   -1.0050    0.8850 n         1 MOL     -0.197082
     54 C17         3.6330   -1.4170    2.1540 c3        1 MOL     -0.192126
     55 C18         3.2350   -2.8900    2.5190 c         1 MOL      0.702302
     56 O9          3.1720   -3.7310    1.6130 o         1 MOL     -0.624454
     57 H25         2.2020   -1.4450    0.5040 hn        1 MOL      0.205465
     58 H26         3.3040   -0.7670    2.9650 h1        1 MOL      0.072580
     59 H27         4.7160   -1.4170    2.0340 h1        1 MOL      0.072580
     60 N6          3.1650   -3.2270    3.8070 n         1 MOL     -0.477040
     61 C19         2.7880   -4.5990    4.3630 c3        1 MOL     -0.044356
     62 C20         1.5270   -5.1080    3.6320 c         1 MOL      0.479502
     63 O10         0.4840   -4.3730    3.5480 o         1 MOL     -0.502507
     64 C21         2.5910   -4.3870    5.8820 c3        1 MOL     -0.108964
     65 C22         1.9670   -5.5580    6.5900 c         1 MOL      0.719115
     66 O11         1.4910   -5.3080    7.6980 o         1 MOL     -0.707095
     67 O12         2.0550   -6.6970    6.0500 o         1 MOL     -0.707095
     68 H28         3.5350   -2.6030    4.5110 hn        1 MOL      0.290123
     69 H29         3.6450   -5.2590    4.3020 h1        1 MOL      0.070141
     70 H30         1.9970   -3.4780    6.0060 hc        1 MOL      0.039015
     71 H31         3.5650   -4.2390    6.3520 hc        1 MOL      0.039015
     72 N7          1.6220   -6.2750    3.0410 n         1 MOL     -0.273656
     73 C23         0.5140   -6.9350    2.2840 c3        1 MOL     -0.073317
     74 C24         0.3330   -6.5910    0.7870 c         1 MOL      0.531544
     75 O13         0.0980   -7.4350   -0.0350 o         1 MOL     -0.590314
     76 H32         2.4440   -6.8240    3.2620 hn        1 MOL      0.244261
     77 H33        -0.4420   -6.6530    2.7240 h1        1 MOL      0.086662
     78 H34         0.6450   -8.0130    2.4140 h1        1 MOL      0.086662
     79 N8          0.6020   -5.3660    0.4780 n         1 MOL     -0.239768
     80 C25         0.3690   -4.6530   -0.8170 c3        1 MOL      0.012013
     81 C26        -0.0100   -3.2010   -0.6370 c         1 MOL      0.493182
     82 O14         0.6740   -2.5630    0.2010 o         1 MOL     -0.384982
     83 C27         1.5810   -4.7460   -1.7180 c3        1 MOL      0.251368
     84 C28         1.1300   -4.7110   -3.1890 c3        1 MOL     -0.287652
     85 O15         2.5260   -3.7020   -1.4850 oh        1 MOL     -0.648160
     86 H35         1.0080   -4.8050    1.2210 hn        1 MOL      0.086610
     87 H36        -0.4670   -5.2070   -1.2460 h1        1 MOL      0.066250
     88 H37         2.0910   -5.6990   -1.5570 h1        1 MOL      0.031396
     89 H38         2.5480   -3.4340   -0.5630 ho        1 MOL      0.385007
     90 H39         0.6760   -3.7790   -3.5430 hc        1 MOL      0.076228
     91 H40         1.9170   -5.0140   -3.8710 hc        1 MOL      0.076228
     92 H41         0.3840   -5.4920   -3.3300 hc        1 MOL      0.076228
     93 N9         -1.0260   -2.7060   -1.3280 n         1 MOL     -0.404756
     94 C29        -1.5000   -1.3170   -1.2060 c3        1 MOL     -0.357524
     95 C30        -2.8750   -1.5180   -0.5240 c         1 MOL      0.779845
     96 O16        -3.2710   -0.6010    0.2050 o         1 MOL     -0.530678
     97 C31        -1.5960   -0.6660   -2.6640 c3        1 MOL      0.152656
     98 C32        -0.1780   -0.4550   -3.2930 c3        1 MOL     -0.056819
     99 C33        -2.3700    0.6700   -2.5540 c3        1 MOL     -0.049409
    100 C34         0.0600   -0.1570   -4.7620 c3        1 MOL     -0.275709
    101 H42        -1.4710   -3.3320   -1.9870 hn        1 MOL      0.269337
    102 H43        -0.9550   -0.5750   -0.6370 h1        1 MOL      0.190623
    103 H44        -2.2220   -1.3160   -3.2670 hc        1 MOL      0.015105
    104 H45         0.4940   -1.3040   -3.1410 hc        1 MOL      0.073978
    105 H46         0.2820    0.4040   -2.8000 hc        1 MOL      0.073978
    106 H47        -2.0840    1.4590   -1.8590 hc        1 MOL      0.023706
    107 H48        -2.3480    1.1750   -3.5200 hc        1 MOL      0.023706
    108 H49        -3.4450    0.5400   -2.4850 hc        1 MOL      0.023706
    109 H50         1.1250   -0.0620   -4.9690 hc        1 MOL      0.066583
    110 H51        -0.4420   -0.8740   -5.4130 hc        1 MOL      0.066583
    111 H52        -0.3340    0.8450   -4.9590 hc        1 MOL      0.066583
    112 N10        -3.6870   -2.5680   -0.8740 n         1 MOL     -0.635092
    113 C35        -5.1320   -2.5840   -0.6240 c3        1 MOL      0.004455
    114 C36        -5.9420   -2.1340   -1.9310 c         1 MOL      0.675811
    115 O17        -5.3470   -2.1220   -2.9920 o         1 MOL     -0.520176
    116 C37        -5.5830   -4.0560   -0.3310 c3        1 MOL      0.334345
    117 C38        -4.7540   -4.6400    0.8210 c3        1 MOL     -0.307652
    118 O18        -6.9280   -4.0670    0.0230 oh        1 MOL     -0.607835
    119 H53        -3.2770   -3.2840   -1.4400 hn        1 MOL      0.329450
    120 H54        -5.4170   -1.9380    0.2100 h1        1 MOL      0.117289
    121 H55        -5.3690   -4.5990   -1.2630 h1        1 MOL     -0.023075
    122 H56        -7.0790   -5.0050    0.1630 ho        1 MOL      0.388790
    123 H57        -4.8320   -3.9290    1.6420 hc        1 MOL      0.091751
    124 H58        -5.1910   -5.5640    1.1970 hc        1 MOL      0.091751
    125 H59        -3.7270   -4.8870    0.5180 hc        1 MOL      0.091751
    126 N11        -7.2620   -1.7470   -1.8100 n         1 MOL     -0.806301
    127 C39        -8.0670   -1.0120   -2.8570 c3        1 MOL      0.318479
    128 C40        -8.2980    0.4460   -2.4200 c         1 MOL      0.546926
    129 O19        -8.1860    1.3120   -3.3120 o         1 MOL     -0.580772
    130 C41        -9.4520   -1.6550   -3.0840 c3        1 MOL      0.338067
    131 C42       -10.1000   -1.1370   -4.3660 c3        1 MOL     -0.307841
    132 O20       -10.3470   -1.5740   -2.0060 oh        1 MOL     -0.671952
    133 H60        -7.5570   -1.6570   -0.8550 hn        1 MOL      0.355751
    134 H61        -7.5740   -1.1450   -3.8160 h1        1 MOL      0.039827
    135 H62        -9.2900   -2.7030   -3.3500 h1        1 MOL     -0.002417
    136 H63       -11.0640   -2.1660   -2.2400 ho        1 MOL      0.408299
    137 H64        -9.6760   -1.6850   -5.2150 hc        1 MOL      0.068561
    138 H65       -11.1530   -1.3970   -4.3310 hc        1 MOL      0.068561
    139 H66        -9.9440   -0.0600   -4.4480 hc        1 MOL      0.068561
    140 N12        -8.4280    0.7670   -1.1680 n         1 MOL     -0.479096
    141 C43        -8.8280    2.0600   -0.6330 c3        1 MOL      0.253202
    142 C44        -7.8590    2.5060    0.4540 c         1 MOL      0.367185
    143 O21        -7.2650    1.7900    1.2730 o         1 MOL     -0.511505
    144 C45       -10.2970    2.0190   -0.1930 c3        1 MOL     -0.274881
    145 C46       -11.2630    1.8670   -1.4590 c3        1 MOL      0.052139
    146 C47       -12.7330    1.8320   -0.9680 c3        1 MOL     -0.035945
    147 C48       -13.0710    0.4380   -0.4580 c3        1 MOL      0.120187
    148 N13       -14.5520    0.3380   -0.0200 n4        1 MOL     -0.301470
    149 H67        -8.4570    0.0030   -0.5040 hn        1 MOL      0.269687
    150 H68        -8.6400    2.7020   -1.5000 h1        1 MOL      0.071435
    151 H69       -10.5020    2.9670    0.2940 hc        1 MOL      0.099668
    152 H70       -10.4610    1.1870    0.4820 hc        1 MOL      0.099668
    153 H71       -11.1830    0.8650   -1.8880 hc        1 MOL      0.020004
    154 H72       -11.1170    2.5980   -2.2440 hc        1 MOL      0.020004
    155 H73       -13.4100    2.0100   -1.8070 hc        1 MOL      0.024233
    156 H74       -12.9260    2.5870   -0.2010 hc        1 MOL      0.024233
    157 H75       -12.4620    0.2890    0.4320 hx        1 MOL      0.051408
    158 H76       -12.8320   -0.3750   -1.1360 hx        1 MOL      0.051408
    159 H77       -14.8000    1.0400    0.6600 hn        1 MOL      0.238289
    160 H78       -15.0600    0.4950   -0.8780 hn        1 MOL      0.238289
    161 H79       -14.8130   -0.5660    0.3420 hn        1 MOL      0.238289
    162 N14        -7.8350    3.7810    0.6560 n         1 MOL     -0.221862
    163 C49        -7.3980    4.5000    1.8290 c3        1 MOL      0.065550
    164 C50        -5.8980    4.7410    1.8350 c         1 MOL      0.374961
    165 O22        -5.3670    4.6650    2.9780 o         1 MOL     -0.537600
    166 C51        -8.2180    5.7400    2.0170 c3        1 MOL     -0.065435
    167 C52        -7.6380    6.6270    3.1800 c3        1 MOL     -0.083147
    168 C53        -8.4740    7.8430    3.4860 c         1 MOL      0.662146
    169 O23        -9.6450    7.6940    3.8600 o         1 MOL     -0.644127
    170 O24        -7.9950    8.9790    3.2370 o         1 MOL     -0.644127
    171 H80        -8.3790    4.2930   -0.0120 hn        1 MOL      0.155980
    172 H81        -7.5240    3.8910    2.7220 h1        1 MOL      0.100514
    173 H82        -9.2580    5.5750    2.2660 hc        1 MOL      0.020524
    174 H83        -8.2400    6.3410    1.1120 hc        1 MOL      0.020524
    175 H84        -6.6540    6.9980    2.8620 hc        1 MOL      0.025971
    176 H85        -7.5490    6.0130    4.0740 hc        1 MOL      0.025971
    177 N15        -5.2260    5.1080    0.7790 n         1 MOL     -0.221058
    178 C54        -5.4790    5.4740   -0.6240 c3        1 MOL     -0.106142
    179 H86        -6.2280    4.8040   -1.0450 h1        1 MOL      0.069996
    180 H87        -5.8430    6.5010   -0.6720 h1        1 MOL      0.069996
    181 H88        -4.5550    5.3880   -1.1950 h1        1 MOL      0.069996
    182 H89        -4.2390    5.1540    1.0100 hn        1 MOL      0.243776
    183 Ca1         7.7320    5.3750    0.0910 Ca        1 MOL      1.767249
    184 O25         8.0000    6.3120    2.4570 oh        1 MOL     -1.022223
    185 H90         7.4010    6.9110    2.8850 ho        1 MOL      0.501780
    186 H91         8.5750    5.9930    3.1540 ho        1 MOL      0.501780
@<TRIPOS>BOND
     1    1    2 1   
     2    1    4 1   
     3    1    5 1   
     4    1    6 1   
     5    2    3 2   
     6    2    7 1   
     7    7    8 1   
     8    7   15 1   
     9    8    9 1   
    10    8   11 1   
    11    8   16 1   
    12    9   10 2   
    13    9   19 1   
    14   11   12 1   
    15   11   17 1   
    16   11   18 1   
    17   12   13 1   
    18   12   14 1   
    19   19   20 1   
    20   19   28 1   
    21   20   21 1   
    22   20   23 1   
    23   20   29 1   
    24   21   22 2   
    25   21   41 1   
    26   23   24 1   
    27   23   30 1   
    28   23   31 1   
    29   24   25 1   
    30   24   32 1   
    31   24   33 1   
    32   25   26 1   
    33   25   34 1   
    34   25   35 1   
    35   26   27 1   
    36   26   36 1   
    37   26   37 1   
    38   27   38 1   
    39   27   39 1   
    40   27   40 1   
    41   41   42 1   
    42   41   49 1   
    43   42   43 1   
    44   42   45 1   
    45   42   50 1   
    46   43   44 2   
    47   43   53 1   
    48   45   46 1   
    49   45   51 1   
    50   45   52 1   
    51   46   47 1   
    52   46   48 1   
    53   53   54 1   
    54   53   57 1   
    55   54   55 1   
    56   54   58 1   
    57   54   59 1   
    58   55   56 2   
    59   55   60 1   
    60   60   61 1   
    61   60   68 1   
    62   61   62 1   
    63   61   64 1   
    64   61   69 1   
    65   62   63 2   
    66   62   72 1   
    67   64   65 1   
    68   64   70 1   
    69   64   71 1   
    70   65   66 1   
    71   65   67 1   
    72   72   73 1   
    73   72   76 1   
    74   73   74 1   
    75   73   77 1   
    76   73   78 1   
    77   74   75 2   
    78   74   79 1   
    79   79   80 1   
    80   79   86 1   
    81   80   81 1   
    82   80   83 1   
    83   80   87 1   
    84   81   82 2   
    85   81   93 1   
    86   83   84 1   
    87   83   85 1   
    88   83   88 1   
    89   84   90 1   
    90   84   91 1   
    91   84   92 1   
    92   85   89 1   
    93   93   94 1   
    94   93  101 1   
    95   94   95 1   
    96   94   97 1   
    97   94  102 1   
    98   95   96 2   
    99   95  112 1   
   100   97   98 1   
   101   97   99 1   
   102   97  103 1   
   103   98  100 1   
   104   98  104 1   
   105   98  105 1   
   106   99  106 1   
   107   99  107 1   
   108   99  108 1   
   109  100  109 1   
   110  100  110 1   
   111  100  111 1   
   112  112  113 1   
   113  112  119 1   
   114  113  114 1   
   115  113  116 1   
   116  113  120 1   
   117  114  115 2   
   118  114  126 1   
   119  116  117 1   
   120  116  118 1   
   121  116  121 1   
   122  117  123 1   
   123  117  124 1   
   124  117  125 1   
   125  118  122 1   
   126  126  127 1   
   127  126  133 1   
   128  127  128 1   
   129  127  130 1   
   130  127  134 1   
   131  128  129 2   
   132  128  140 1   
   133  130  131 1   
   134  130  132 1   
   135  130  135 1   
   136  131  137 1   
   137  131  138 1   
   138  131  139 1   
   139  132  136 1   
   140  140  141 1   
   141  140  149 1   
   142  141  142 1   
   143  141  144 1   
   144  141  150 1   
   145  142  143 2   
   146  142  162 1   
   147  144  145 1   
   148  144  151 1   
   149  144  152 1   
   150  145  146 1   
   151  145  153 1   
   152  145  154 1   
   153  146  147 1   
   154  146  155 1   
   155  146  156 1   
   156  147  148 1   
   157  147  157 1   
   158  147  158 1   
   159  148  159 1   
   160  148  160 1   
   161  148  161 1   
   162  162  163 1   
   163  162  171 1   
   164  163  164 1   
   165  163  166 1   
   166  163  172 1   
   167  164  165 2   
   168  164  177 1   
   169  166  167 1   
   170  166  173 1   
   171  166  174 1   
   172  167  168 1   
   173  167  175 1   
   174  167  176 1   
   175  168  169 1   
   176  168  170 1   
   177  177  178 1   
   178  177  182 1   
   179  178  179 1   
   180  178  180 1   
   181  178  181 1   
   182  184  185 1   
   183  184  186 1   
@<TRIPOS>SUBSTRUCTURE
     1 MOL         1 TEMP              0 ****  ****    0 ROOT
