@<TRIPOS>MOLECULE
MOL
  175   173     1     0     0
SMALL
resp


@<TRIPOS>ATOM
      1 C1         -6.3800    8.1620    2.0160 c3        1 MOL     -0.340131
      2 C2         -7.0850    7.4010    0.8730 c         1 MOL      0.607900
      3 O1         -7.0850    7.9000   -0.2840 o         1 MOL     -0.583688
      4 H1         -5.7370    7.4750    2.5660 hc        1 MOL      0.079908
      5 H2         -5.7770    8.9680    1.5980 hc        1 MOL      0.079908
      6 H3         -7.1270    8.5780    2.6910 hc        1 MOL      0.079908
      7 N1         -7.8040    6.3590    1.1430 n         1 MOL     -0.341750
      8 C3         -8.4850    5.4990    0.1800 c3        1 MOL      0.036745
      9 C4         -7.6100    4.5190   -0.5830 c         1 MOL      0.511019
     10 O2         -7.9680    4.0640   -1.6890 o         1 MOL     -0.493608
     11 C5         -9.6430    4.7820    0.7970 c3        1 MOL     -0.269568
     12 C6        -10.4430    3.9410   -0.2650 c         1 MOL      0.714532
     13 O3        -10.4020    2.7110   -0.1650 o         1 MOL     -0.719505
     14 O4        -11.1110    4.5450   -1.1770 o         1 MOL     -0.719505
     15 H4         -7.8260    6.0570    2.1100 hn        1 MOL      0.224786
     16 H5         -8.8480    6.2670   -0.4980 h1        1 MOL      0.093326
     17 H6        -10.3460    5.4760    1.2700 hc        1 MOL      0.030694
     18 H7         -9.2820    4.1110    1.5750 hc        1 MOL      0.030694
     19 N2         -6.3980    4.3380   -0.0680 n         1 MOL     -0.496880
     20 C7         -5.4730    3.4900   -0.7890 c3        1 MOL      0.375836
     21 C8         -4.7910    2.4810    0.1760 c         1 MOL      0.429307
     22 O5         -4.3620    2.9480    1.1850 o         1 MOL     -0.568700
     23 C9         -4.5000    4.4450   -1.5400 c3        1 MOL     -0.270022
     24 H8         -6.0940    4.8670    0.7380 hn        1 MOL      0.259364
     25 H9         -5.9810    2.8430   -1.5030 h1        1 MOL     -0.020724
     26 H10        -3.8360    3.8020   -2.1160 hc        1 MOL      0.068484
     27 H11        -5.0630    5.1460   -2.1530 hc        1 MOL      0.068484
     28 H12        -3.9250    5.0330   -0.8250 hc        1 MOL      0.068484
     29 N3         -4.7710    1.2140    0.0150 n         1 MOL     -0.195998
     30 C10        -5.5140    0.4330   -1.0560 c3        1 MOL     -0.261575
     31 C11        -5.7560   -1.0070   -0.4820 c         1 MOL      0.436953
     32 O6         -5.0400   -1.4750    0.4400 o         1 MOL     -0.455312
     33 C12        -4.6460    0.3780   -2.3690 c3        1 MOL     -0.165782
     34 C13        -3.2280   -0.0690   -2.1030 c         1 MOL      0.659434
     35 O7         -2.4430    0.6790   -1.4670 o         1 MOL     -0.698670
     36 O8         -2.7860   -1.2040   -2.4900 o         1 MOL     -0.698670
     37 H13        -4.3820    0.7850    0.8360 hn        1 MOL      0.197375
     38 H14        -6.4750    0.8520   -1.3490 h1        1 MOL      0.181410
     39 H15        -4.7040    1.3420   -2.8670 hc        1 MOL      0.067085
     40 H16        -5.0190   -0.3730   -3.0750 hc        1 MOL      0.067085
     41 N4         -6.7810   -1.7110   -0.9460 n         1 MOL     -0.292755
     42 C14        -7.3570   -2.9710   -0.4760 c3        1 MOL      0.017830
     43 C15        -7.0710   -4.1000   -1.5180 c         1 MOL      0.472261
     44 O9         -7.9810   -4.4570   -2.2760 o         1 MOL     -0.571409
     45 H17        -7.4000   -1.1370   -1.4960 hn        1 MOL      0.291830
     46 H18        -8.4280   -2.8270   -0.3070 h1        1 MOL      0.064024
     47 H19        -6.9070   -3.3450    0.4430 h1        1 MOL      0.064024
     48 N5         -5.9590   -4.8040   -1.6970 n         1 MOL     -0.414524
     49 C16        -4.6940   -4.4790   -1.0560 c3        1 MOL      0.045575
     50 C17        -4.4250   -5.1370    0.3010 c         1 MOL      0.437036
     51 O10        -4.2430   -6.3430    0.4190 o         1 MOL     -0.530195
     52 C18        -3.5660   -4.5900   -2.0630 c3        1 MOL      0.064766
     53 C19        -2.2150   -4.0980   -1.5690 c         1 MOL      0.447611
     54 N6         -1.3030   -4.4440   -2.3550 n         1 MOL     -0.581727
     55 O11        -2.0640   -3.3740   -0.6230 o         1 MOL     -0.545586
     56 H20        -6.1190   -5.6320   -2.2550 hn        1 MOL      0.305056
     57 H21        -4.7530   -3.3930   -0.9780 h1        1 MOL      0.072321
     58 H22        -3.8690   -4.0870   -2.9750 hc        1 MOL     -0.003396
     59 H23        -3.5140   -5.6220   -2.4290 hc        1 MOL     -0.003396
     60 H24        -1.5870   -4.9590   -3.1850 hn        1 MOL      0.310696
     61 H25        -0.3380   -4.2920   -2.0980 hn        1 MOL      0.310696
     62 N7         -4.4210   -4.2750    1.3210 n         1 MOL     -0.157402
     63 C20        -4.0180   -4.6720    2.6800 c3        1 MOL     -0.255946
     64 C21        -2.5230   -5.0390    2.7830 c         1 MOL      0.540717
     65 O12        -2.2650   -5.8240    3.6660 o         1 MOL     -0.560229
     66 H26        -4.7870   -3.3470    1.2220 hn        1 MOL      0.198603
     67 H27        -4.7290   -5.4310    2.9810 h1        1 MOL      0.114372
     68 H28        -4.0880   -3.8400    3.3820 h1        1 MOL      0.114372
     69 N8         -1.5750   -4.5110    1.9900 n         1 MOL     -0.249419
     70 C22        -0.1320   -4.8200    2.0970 c3        1 MOL      0.007161
     71 C23         0.8040   -3.6350    1.9270 c         1 MOL      0.373841
     72 O13         0.4470   -2.6560    1.2870 o         1 MOL     -0.525684
     73 C24         0.2170   -6.0260    1.1400 c3        1 MOL      0.471258
     74 C25        -0.3850   -7.4290    1.4350 c3        1 MOL     -0.439562
     75 O14        -0.1110   -5.8610   -0.2250 oh        1 MOL     -0.634616
     76 H29        -1.7380   -3.8670    1.2270 hn        1 MOL      0.168891
     77 H30         0.0540   -5.1950    3.1020 h1        1 MOL      0.020048
     78 H31         1.2750   -6.2090    1.3500 h1        1 MOL     -0.061502
     79 H32         0.5170   -5.2330   -0.5780 ho        1 MOL      0.427988
     80 H33        -1.4530   -7.4970    1.2520 hc        1 MOL      0.109085
     81 H34         0.0020   -8.2580    0.8410 hc        1 MOL      0.109085
     82 H35        -0.3200   -7.6690    2.4940 hc        1 MOL      0.109085
     83 N9          2.0520   -3.7010    2.4030 n         1 MOL     -0.330736
     84 C26         2.9970   -2.6210    2.2490 c3        1 MOL      0.177221
     85 C27         4.0020   -2.9840    1.1050 c         1 MOL      0.246019
     86 O15         4.8650   -3.9270    1.2580 o         1 MOL     -0.554082
     87 C28         3.7210   -2.3720    3.5950 c3        1 MOL      0.198924
     88 C29         4.8380   -1.2230    3.4190 c3        1 MOL     -0.169322
     89 C30         2.7120   -2.2380    4.7490 c3        1 MOL     -0.389191
     90 C31         4.2070    0.1240    3.2420 c3        1 MOL      0.007026
     91 H36         2.3920   -4.5550    2.8250 hn        1 MOL      0.266116
     92 H37         2.4010   -1.7460    1.9740 h1        1 MOL      0.083412
     93 H38         4.3190   -3.2730    3.7830 hc        1 MOL     -0.028578
     94 H39         5.4490   -1.3020    2.5150 hc        1 MOL      0.029677
     95 H40         5.4310   -1.1810    4.3260 hc        1 MOL      0.029677
     96 H41         1.9220   -1.5080    4.5420 hc        1 MOL      0.092867
     97 H42         2.3920   -3.2530    4.9870 hc        1 MOL      0.092867
     98 H43         3.1470   -1.8220    5.6610 hc        1 MOL      0.092867
     99 H44         3.8180    0.4200    4.2170 hc        1 MOL      0.002290
    100 H45         4.8830    0.9280    2.9690 hc        1 MOL      0.002290
    101 H46         3.3930    0.0510    2.5080 hc        1 MOL      0.002290
    102 N10         3.9160   -2.3230   -0.0110 n         1 MOL     -0.036848
    103 C32         4.3320   -2.7790   -1.3050 c3        1 MOL      0.065314
    104 C33         5.5730   -1.9560   -1.7690 c         1 MOL      0.571704
    105 O16         6.2260   -2.4120   -2.6960 o         1 MOL     -0.575869
    106 C34         3.1990   -2.6890   -2.2880 c3        1 MOL     -0.346488
    107 C35         1.9690   -3.5430   -1.8170 c         1 MOL      0.764915
    108 O17         2.0800   -4.7000   -1.3370 o         1 MOL     -0.686977
    109 O18         0.8710   -2.9820   -1.7370 o         1 MOL     -0.686977
    110 H47         3.1870   -1.6250   -0.0940 hn        1 MOL      0.163089
    111 H48         4.6880   -3.8040   -1.2360 h1        1 MOL      0.087611
    112 H49         3.5720   -3.0490   -3.2460 hc        1 MOL      0.078839
    113 H50         2.9520   -1.6260   -2.2680 hc        1 MOL      0.078839
    114 N11         5.9330   -0.9060   -1.0650 n         1 MOL     -0.556060
    115 C36         7.0910    0.0660   -1.2060 c3        1 MOL      0.363617
    116 C37         6.7800    1.3900   -0.4310 c         1 MOL      0.219310
    117 O19         6.7710    1.2820    0.8430 o         1 MOL     -0.453521
    118 C38         8.4060   -0.5860   -0.8780 c3        1 MOL     -0.287702
    119 C39         9.5560    0.4640   -1.1210 ca        1 MOL      0.128808
    120 C40        10.1480    1.2820   -0.1090 ca        1 MOL     -0.164657
    121 C41        10.2200    0.5020   -2.3680 ca        1 MOL     -0.164657
    122 C42        11.1980    2.2620   -0.4110 ca        1 MOL     -0.099292
    123 C43        11.2210    1.4600   -2.6170 ca        1 MOL     -0.099292
    124 C44        11.6860    2.3740   -1.6850 ca        1 MOL     -0.118181
    125 H51         5.3880   -0.7660   -0.2280 hn        1 MOL      0.279103
    126 H52         7.1420    0.3580   -2.2510 h1        1 MOL     -0.005197
    127 H53         8.5560   -1.4850   -1.4740 hc        1 MOL      0.122273
    128 H54         8.3130   -0.9330    0.1520 hc        1 MOL      0.122273
    129 H55         9.6920    1.3210    0.8630 ha        1 MOL      0.115404
    130 H56         9.8460   -0.0200   -3.2370 ha        1 MOL      0.115404
    131 H57        11.6650    2.9510    0.2750 ha        1 MOL      0.096478
    132 H58        11.5360    1.5710   -3.6350 ha        1 MOL      0.096478
    133 H59        12.3670    3.1440   -2.0050 ha        1 MOL      0.106362
    134 N12         6.7810    2.6360   -0.9710 n         1 MOL      0.092360
    135 C45         7.0760    3.8440   -0.3030 c3        1 MOL     -0.185341
    136 C46         5.8010    4.5900    0.2210 c         1 MOL      0.535542
    137 O20         5.8970    5.7050    0.7670 o         1 MOL     -0.554675
    138 C47         7.9450    4.7300   -1.2870 c3        1 MOL     -0.068169
    139 C48         7.2000    4.4320   -2.5220 c3        1 MOL      0.018693
    140 C49         6.9170    2.9130   -2.4380 c3        1 MOL     -0.304308
    141 H60         7.6980    3.6990    0.5840 h1        1 MOL      0.116478
    142 H61         7.9360    5.8010   -1.0770 hc        1 MOL      0.058325
    143 H62         8.9770    4.3860   -1.3030 hc        1 MOL      0.058325
    144 H63         6.3040    5.0440   -2.5800 hc        1 MOL      0.044193
    145 H64         7.6820    4.8160   -3.4220 hc        1 MOL      0.044193
    146 H65         6.0050    2.5980   -2.9370 h1        1 MOL      0.113332
    147 H66         7.8090    2.4170   -2.8050 h1        1 MOL      0.113332
    148 N13         4.6150    3.9710    0.1280 n         1 MOL     -0.368338
    149 C50         3.2740    4.5010    0.5090 c3        1 MOL     -0.115557
    150 C51         3.1970    5.1350    1.9420 c         1 MOL      0.538867
    151 O21         2.3530    5.9430    2.1680 o         1 MOL     -0.525883
    152 C52         2.2310    3.4400    0.2700 c3        1 MOL      0.021168
    153 C53         2.4740    2.0730    0.9430 c3        1 MOL     -0.013380
    154 C54         1.5100    0.9960    0.4180 c         1 MOL      0.866737
    155 O22         1.9310   -0.0560   -0.0320 o         1 MOL     -0.823105
    156 O23         0.2480    1.1830    0.3980 o         1 MOL     -0.823105
    157 H67         4.6120    3.0900   -0.3680 hn        1 MOL      0.239416
    158 H68         3.0530    5.3100   -0.1900 h1        1 MOL      0.102436
    159 H69         2.2070    3.2540   -0.8070 hc        1 MOL      0.031627
    160 H70         1.2520    3.8510    0.5240 hc        1 MOL      0.031627
    161 H71         2.3590    2.0860    2.0280 hc        1 MOL     -0.049013
    162 H72         3.4220    1.6290    0.6440 hc        1 MOL     -0.049013
    163 N14         4.1300    4.6980    2.8030 n         1 MOL     -0.149082
    164 C55         4.2030    5.1330    4.2390 c3        1 MOL     -0.262450
    165 H73         5.1060    4.7270    4.6950 h1        1 MOL      0.108884
    166 H74         4.2300    6.2210    4.2890 h1        1 MOL      0.108884
    167 H75         3.3280    4.7650    4.7760 h1        1 MOL      0.108884
    168 H76         4.7740    4.0630    2.3700 hn        1 MOL      0.179580
    169 Ca1        -0.6590   -1.0590   -0.7190 Ca        1 MOL      1.766839
    170 O24         0.1050   -0.2630   -3.1090 oh        1 MOL     -0.868458
    171 H77         0.1940   -0.7150   -3.9390 ho        1 MOL      0.418339
    172 H78         0.3440    0.6440   -3.3030 ho        1 MOL      0.418339
    173 O25        -2.4230   -0.9970    1.2890 oh        1 MOL     -0.868458
    174 H79        -2.1700   -0.2250    1.7970 ho        1 MOL      0.418339
    175 H80        -3.3430   -0.8570    1.0740 ho        1 MOL      0.418339
@<TRIPOS>BOND
     1    1    2 1   
     2    1    4 1   
     3    1    5 1   
     4    1    6 1   
     5    2    3 2   
     6    2    7 1   
     7    7    8 1   
     8    7   15 1   
     9    8    9 1   
    10    8   11 1   
    11    8   16 1   
    12    9   10 2   
    13    9   19 1   
    14   11   12 1   
    15   11   17 1   
    16   11   18 1   
    17   12   13 1   
    18   12   14 1   
    19   19   20 1   
    20   19   24 1   
    21   20   21 1   
    22   20   23 1   
    23   20   25 1   
    24   21   22 2   
    25   21   29 1   
    26   23   26 1   
    27   23   27 1   
    28   23   28 1   
    29   29   30 1   
    30   29   37 1   
    31   30   31 1   
    32   30   33 1   
    33   30   38 1   
    34   31   32 2   
    35   31   41 1   
    36   33   34 1   
    37   33   39 1   
    38   33   40 1   
    39   34   35 1   
    40   34   36 1   
    41   41   42 1   
    42   41   45 1   
    43   42   43 1   
    44   42   46 1   
    45   42   47 1   
    46   43   44 2   
    47   43   48 1   
    48   48   49 1   
    49   48   56 1   
    50   49   50 1   
    51   49   52 1   
    52   49   57 1   
    53   50   51 2   
    54   50   62 1   
    55   52   53 1   
    56   52   58 1   
    57   52   59 1   
    58   53   54 1   
    59   53   55 2   
    60   54   60 1   
    61   54   61 1   
    62   62   63 1   
    63   62   66 1   
    64   63   64 1   
    65   63   67 1   
    66   63   68 1   
    67   64   65 2   
    68   64   69 1   
    69   69   70 1   
    70   69   76 1   
    71   70   71 1   
    72   70   73 1   
    73   70   77 1   
    74   71   72 2   
    75   71   83 1   
    76   73   74 1   
    77   73   75 1   
    78   73   78 1   
    79   74   80 1   
    80   74   81 1   
    81   74   82 1   
    82   75   79 1   
    83   83   84 1   
    84   83   91 1   
    85   84   85 1   
    86   84   87 1   
    87   84   92 1   
    88   85   86 2   
    89   85  102 1   
    90   87   88 1   
    91   87   89 1   
    92   87   93 1   
    93   88   90 1   
    94   88   94 1   
    95   88   95 1   
    96   89   96 1   
    97   89   97 1   
    98   89   98 1   
    99   90   99 1   
   100   90  100 1   
   101   90  101 1   
   102  102  103 1   
   103  102  110 1   
   104  103  104 1   
   105  103  106 1   
   106  103  111 1   
   107  104  105 2   
   108  104  114 1   
   109  106  107 1   
   110  106  112 1   
   111  106  113 1   
   112  107  108 1   
   113  107  109 1   
   114  114  115 1   
   115  114  125 1   
   116  115  116 1   
   117  115  118 1   
   118  115  126 1   
   119  116  117 2   
   120  116  134 1   
   121  118  119 1   
   122  118  127 1   
   123  118  128 1   
   124  119  120 ar  
   125  119  121 ar  
   126  120  122 ar  
   127  120  129 1   
   128  121  123 ar  
   129  121  130 1   
   130  122  124 ar  
   131  122  131 1   
   132  123  124 ar  
   133  123  132 1   
   134  124  133 1   
   135  134  135 1   
   136  134  140 1   
   137  135  136 1   
   138  135  138 1   
   139  135  141 1   
   140  136  137 2   
   141  136  148 1   
   142  138  139 1   
   143  138  142 1   
   144  138  143 1   
   145  139  140 1   
   146  139  144 1   
   147  139  145 1   
   148  140  146 1   
   149  140  147 1   
   150  148  149 1   
   151  148  157 1   
   152  149  150 1   
   153  149  152 1   
   154  149  158 1   
   155  150  151 2   
   156  150  163 1   
   157  152  153 1   
   158  152  159 1   
   159  152  160 1   
   160  153  154 1   
   161  153  161 1   
   162  153  162 1   
   163  154  155 1   
   164  154  156 1   
   165  163  164 1   
   166  163  168 1   
   167  164  165 1   
   168  164  166 1   
   169  164  167 1   
   170  170  171 1   
   171  170  172 1   
   172  173  174 1   
   173  173  175 1   
@<TRIPOS>SUBSTRUCTURE
     1 MOL         1 TEMP              0 ****  ****    0 ROOT
