@<TRIPOS>MOLECULE
MOL
  178   175     1     0     0
SMALL
resp


@<TRIPOS>ATOM
      1 C1         11.7340   -4.6630    3.9200 c3        1 MOL     -0.383230
      2 C2         10.8060   -4.9560    2.6730 c         1 MOL      0.814152
      3 O1         10.3260   -6.0730    2.6010 o         1 MOL     -0.614801
      4 H1         11.7430   -5.5320    4.5780 hc        1 MOL      0.087993
      5 H2         12.7480   -4.4560    3.5790 hc        1 MOL      0.087993
      6 H3         11.3500   -3.8000    4.4650 hc        1 MOL      0.087993
      7 N1         10.6780   -4.0680    1.6860 n         1 MOL     -0.785756
      8 C3         11.0930   -2.6620    1.7660 c3        1 MOL      0.314074
      9 C4         11.4900   -2.0160    0.3970 c         1 MOL      0.511164
     10 O2         11.1830   -2.6940   -0.5950 o         1 MOL     -0.404205
     11 C5          9.9710   -1.8670    2.3460 c3        1 MOL     -0.122802
     12 C6          8.6580   -1.7160    1.5150 c         1 MOL      0.628626
     13 O3          7.6690   -1.0000    1.9090 o         1 MOL     -0.709219
     14 O4          8.4880   -2.3290    0.4300 o         1 MOL     -0.709219
     15 H4         10.0140   -4.2750    0.9460 hn        1 MOL      0.408293
     16 H5         11.9160   -2.4620    2.4590 h1        1 MOL     -0.017626
     17 H6         10.3080   -0.8520    2.5370 hc        1 MOL      0.005032
     18 H7          9.7640   -2.2310    3.3480 hc        1 MOL      0.005032
     19 N2         12.2850   -0.9180    0.4290 n         1 MOL     -0.765976
     20 C7         12.9070   -0.1180   -0.6630 c3        1 MOL      0.346107
     21 C8         11.9310    0.5210   -1.6370 c         1 MOL      0.247144
     22 O5         12.3620    1.1000   -2.6260 o         1 MOL     -0.506711
     23 C9         14.0140   -0.9280   -1.3610 c3        1 MOL     -0.052395
     24 H8         12.5750   -0.6410    1.3640 hn        1 MOL      0.342915
     25 H9         13.5050    0.7050   -0.2750 h1        1 MOL      0.014694
     26 H10        14.7920   -1.0460   -0.6140 hc        1 MOL      0.019018
     27 H11        13.6390   -1.8860   -1.7170 hc        1 MOL      0.019018
     28 H12        14.4900   -0.3530   -2.1590 hc        1 MOL      0.019018
     29 N3         10.5980    0.5770   -1.3730 n         1 MOL      0.050407
     30 C10         9.6530    1.4840   -2.0660 c3        1 MOL     -0.305801
     31 C11         8.5880    1.9090   -1.1000 c         1 MOL      0.291641
     32 O6          8.2570    1.2180   -0.1150 o         1 MOL     -0.417094
     33 C12         9.0200    0.7910   -3.2960 c3        1 MOL      0.231258
     34 C13         8.4590   -0.5840   -3.0300 c         1 MOL      0.559027
     35 O7          9.0550   -1.5650   -3.5380 o         1 MOL     -0.663963
     36 O8          7.4210   -0.6650   -2.3190 o         1 MOL     -0.663963
     37 H13        10.2890    0.1880   -0.4930 hn        1 MOL      0.147612
     38 H14        10.1400    2.4300   -2.3190 h1        1 MOL      0.087844
     39 H15         9.6420    0.7820   -4.1870 hc        1 MOL     -0.044692
     40 H16         8.1690    1.3460   -3.6880 hc        1 MOL     -0.044692
     41 N4          7.9160    3.0180   -1.4870 n         1 MOL     -0.101578
     42 C14         6.8130    3.5990   -0.8730 c3        1 MOL     -0.426165
     43 C15         5.5560    2.6840   -0.6190 c         1 MOL      0.816040
     44 O9          5.4820    1.5730   -1.0600 o         1 MOL     -0.679875
     45 H17         8.3530    3.5370   -2.2330 hn        1 MOL      0.244655
     46 H18         6.4450    4.4120   -1.5060 h1        1 MOL      0.144451
     47 H19         7.1700    4.0640    0.0370 h1        1 MOL      0.144451
     48 N5          4.6220    3.1080    0.2080 n         1 MOL     -0.502041
     49 C16         3.4010    2.5120    0.7330 c3        1 MOL      0.049503
     50 C17         2.1360    3.3930    0.3840 c         1 MOL      0.616553
     51 O10         2.2430    4.5880    0.1620 o         1 MOL     -0.553053
     52 C18         3.5280    2.2790    2.3120 c3        1 MOL     -0.257920
     53 C19         4.6470    1.2670    2.6000 c         1 MOL      0.758177
     54 N6          4.8570    1.0920    3.8760 n         1 MOL     -0.757265
     55 O11         5.2260    0.6500    1.7080 o         1 MOL     -0.680327
     56 H20         4.6680    4.0660    0.5180 hn        1 MOL      0.251387
     57 H21         3.1570    1.6100    0.1740 h1        1 MOL      0.130147
     58 H22         2.6290    1.8620    2.7640 hc        1 MOL      0.087361
     59 H23         3.7580    3.1850    2.8910 hc        1 MOL      0.087361
     60 H24         4.3640    1.5630    4.6140 hn        1 MOL      0.360036
     61 H25         5.5720    0.4200    4.1350 hn        1 MOL      0.360036
     62 N7          0.9700    2.7570    0.3240 n         1 MOL     -0.555001
     63 C20        -0.3990    3.3770    0.1520 c3        1 MOL      0.124455
     64 C21        -0.7250    4.0640   -1.1830 c         1 MOL      0.497571
     65 O12        -0.3150    3.5840   -2.2740 o         1 MOL     -0.561992
     66 H26         0.8970    1.7560    0.4060 hn        1 MOL      0.320518
     67 H27        -0.6890    3.9720    1.0150 h1        1 MOL      0.065255
     68 H28        -1.0910    2.5400    0.0730 h1        1 MOL      0.065255
     69 N8         -1.5830    5.0570   -1.2620 n         1 MOL     -0.319887
     70 C22        -2.2250    5.7720   -0.1480 c3        1 MOL     -0.273764
     71 C23        -3.5180    5.1200    0.3920 c         1 MOL      0.475187
     72 O13        -4.0940    5.5750    1.3960 o         1 MOL     -0.505051
     73 C24        -2.4040    7.2220   -0.5700 c3        1 MOL      0.478348
     74 C25        -1.1030    8.0030   -0.4710 c3        1 MOL     -0.340516
     75 O14        -3.0820    7.2990   -1.8260 oh        1 MOL     -0.616827
     76 H29        -1.7130    5.3760   -2.2040 hn        1 MOL      0.282284
     77 H30        -1.4990    5.7990    0.6600 h1        1 MOL      0.152535
     78 H31        -3.0320    7.6290    0.2150 h1        1 MOL     -0.037065
     79 H32        -3.3780    8.2130   -1.8910 ho        1 MOL      0.384105
     80 H33        -1.2780    9.0150   -0.8180 hc        1 MOL      0.077123
     81 H34        -0.7420    8.0380    0.5640 hc        1 MOL      0.077123
     82 H35        -0.4350    7.4800   -1.1550 hc        1 MOL      0.077123
     83 N9         -3.9560    4.0700   -0.2300 n         1 MOL     -0.240382
     84 C26        -5.0860    3.1820    0.1790 c3        1 MOL     -0.204973
     85 C27        -4.8200    2.4320    1.5180 c         1 MOL      0.593480
     86 O15        -3.6970    2.2860    1.9750 o         1 MOL     -0.578576
     87 C28        -5.4480    2.1420   -0.8900 c3        1 MOL      0.113343
     88 C29        -4.2760    1.1860   -1.3280 c3        1 MOL      0.221541
     89 C30        -5.9330    2.9230   -2.1700 c3        1 MOL     -0.322523
     90 C31        -4.5480    0.2290   -2.5340 c3        1 MOL     -0.412668
     91 H36        -3.4590    3.8280   -1.0800 hn        1 MOL      0.216278
     92 H37        -5.9660    3.8080    0.3500 h1        1 MOL      0.150247
     93 H38        -6.2360    1.4870   -0.5320 hc        1 MOL      0.035356
     94 H39        -4.0150    0.6410   -0.4210 hc        1 MOL     -0.019207
     95 H40        -3.4020    1.8230   -1.4980 hc        1 MOL     -0.019207
     96 H41        -5.1280    3.1010   -2.8780 hc        1 MOL      0.062698
     97 H42        -6.7720    2.4010   -2.6360 hc        1 MOL      0.062698
     98 H43        -6.2660    3.9180   -1.8830 hc        1 MOL      0.062698
     99 H44        -3.5790   -0.1760   -2.8230 hc        1 MOL      0.112735
    100 H45        -5.3240   -0.4520   -2.1720 hc        1 MOL      0.112735
    101 H46        -4.9160    0.9530   -3.2570 hc        1 MOL      0.112735
    102 N10        -5.8220    2.0120    2.2810 n         1 MOL     -0.292825
    103 C32        -7.2900    1.8650    2.0340 c3        1 MOL     -0.127980
    104 C33        -7.7590    0.5560    1.3940 c         1 MOL      0.858805
    105 O16        -6.9860   -0.4340    1.1840 o         1 MOL     -0.717467
    106 C34        -7.9240    2.0200    3.4940 c3        1 MOL     -0.198066
    107 C35        -7.4960    3.3000    4.2210 c         1 MOL      0.704624
    108 O17        -8.2280    4.3130    3.9650 o         1 MOL     -0.717047
    109 O18        -6.5530    3.3440    5.0740 o         1 MOL     -0.717047
    110 H47        -5.5470    1.4840    3.1090 hn        1 MOL      0.263748
    111 H48        -7.6100    2.7020    1.4070 h1        1 MOL      0.062714
    112 H49        -7.8340    1.2240    4.2280 hc        1 MOL      0.031845
    113 H50        -9.0000    2.0720    3.2920 hc        1 MOL      0.031845
    114 N11        -9.0210    0.4830    1.0850 n         1 MOL     -0.829100
    115 C36        -9.6950   -0.5890    0.3260 c3        1 MOL      0.587661
    116 C37        -9.1590   -0.7190   -1.1360 c         1 MOL      0.219577
    117 O19        -8.9610    0.3180   -1.7500 o         1 MOL     -0.509158
    118 C38       -11.1770   -0.3560    0.4420 c3        1 MOL     -0.250376
    119 C39       -11.9540   -1.5330   -0.1130 ca        1 MOL      0.083493
    120 C40       -12.3050   -1.6710   -1.4520 ca        1 MOL     -0.131478
    121 C41       -12.2800   -2.5400    0.7350 ca        1 MOL     -0.131478
    122 C42       -12.9930   -2.8130   -1.9440 ca        1 MOL     -0.148995
    123 C43       -12.7790   -3.7400    0.2410 ca        1 MOL     -0.148995
    124 C44       -13.1590   -3.8700   -1.1040 ca        1 MOL     -0.085639
    125 H51        -9.5510    1.3250    1.2350 hn        1 MOL      0.366372
    126 H52        -9.4530   -1.5350    0.8130 h1        1 MOL     -0.052979
    127 H53       -11.3680    0.5840   -0.0870 hc        1 MOL      0.069281
    128 H54       -11.4700   -0.2050    1.4800 hc        1 MOL      0.069281
    129 H55       -12.0380   -0.8900   -2.1370 ha        1 MOL      0.114293
    130 H56       -12.1160   -2.4520    1.8020 ha        1 MOL      0.114293
    131 H57       -13.0530   -2.9150   -3.0120 ha        1 MOL      0.115153
    132 H58       -13.0610   -4.4960    0.9690 ha        1 MOL      0.115153
    133 H59       -13.5000   -4.8290   -1.4690 ha        1 MOL      0.098216
    134 N12        -8.8850   -1.9310   -1.6670 n         1 MOL     -0.006396
    135 C45        -9.0600   -3.2350   -1.0890 c3        1 MOL      0.358907
    136 C46        -7.9490   -3.7150   -0.1040 c         1 MOL      0.356424
    137 O20        -8.2160   -4.6470    0.6740 o         1 MOL     -0.566158
    138 C47        -9.1130   -4.1860   -2.2310 c3        1 MOL     -0.264489
    139 C48        -8.4600   -3.3900   -3.4060 c3        1 MOL     -0.066887
    140 C49        -8.4260   -1.9750   -3.0350 c3        1 MOL     -0.052066
    141 H60       -10.0210   -3.1860   -0.5790 h1        1 MOL     -0.072613
    142 H61        -8.6630   -5.1550   -1.9920 hc        1 MOL      0.073243
    143 H62       -10.1480   -4.4400   -2.4450 hc        1 MOL      0.073243
    144 H63        -7.4150   -3.7030   -3.4350 hc        1 MOL      0.047748
    145 H64        -8.7920   -3.5200   -4.4400 hc        1 MOL      0.047748
    146 H65        -7.4190   -1.5580   -3.0360 h1        1 MOL      0.039885
    147 H66        -9.1830   -1.5240   -3.6860 h1        1 MOL      0.039885
    148 N13        -6.8040   -3.1020   -0.2750 n         1 MOL     -0.086320
    149 C50        -5.5830   -3.5930    0.2300 c3        1 MOL     -0.050196
    150 C51        -5.2420   -5.0670   -0.1650 c         1 MOL      0.323827
    151 O21        -4.9380   -5.2850   -1.3590 o         1 MOL     -0.529822
    152 C52        -4.4670   -2.6370   -0.1750 c3        1 MOL      0.293947
    153 C53        -3.0300   -3.0000    0.2050 c3        1 MOL     -0.152892
    154 C54        -2.0320   -2.3250   -0.6950 c         1 MOL      0.688393
    155 O22        -1.9560   -2.7260   -1.8540 o         1 MOL     -0.728498
    156 O23        -1.3620   -1.3160   -0.3560 o         1 MOL     -0.728498
    157 H67        -6.7540   -2.4250   -1.0120 hn        1 MOL      0.187936
    158 H68        -5.5260   -3.5330    1.3130 h1        1 MOL      0.081764
    159 H69        -4.6320   -1.7130    0.3780 hc        1 MOL     -0.043426
    160 H70        -4.5120   -2.3410   -1.2240 hc        1 MOL     -0.043426
    161 H71        -2.8440   -4.0570    0.0080 hc        1 MOL     -0.028350
    162 H72        -2.7670   -2.7410    1.2270 hc        1 MOL     -0.028350
    163 N14        -5.3730   -6.1090    0.6370 n         1 MOL     -0.243861
    164 C55        -5.9270   -6.1340    2.0530 c3        1 MOL     -0.144399
    165 H73        -5.5940   -7.0420    2.5570 h1        1 MOL      0.075909
    166 H74        -5.5670   -5.2630    2.6010 h1        1 MOL      0.075909
    167 H75        -7.0160   -6.1180    2.0190 h1        1 MOL      0.075909
    168 H76        -5.0360   -6.9770    0.2590 hn        1 MOL      0.256739
    169 Ca1         6.0640   -0.8950   -0.2300 Ca        1 MOL      1.751449
    170 O24         5.6180   -3.0850   -1.4920 oh        1 MOL     -0.853373
    171 H77         6.1220   -3.8520   -1.2180 ho        1 MOL      0.428091
    172 H78         5.2530   -3.3190   -2.3420 ho        1 MOL      0.428091
    173 O25         5.2880   -2.9380    1.3360 oh        1 MOL     -0.853373
    174 H79         4.4840   -3.4130    1.5270 ho        1 MOL      0.428091
    175 H80         5.9040   -3.2070    2.0190 ho        1 MOL      0.428091
    176 O26         3.5190   -1.2970   -0.6150 oh        1 MOL     -0.853373
    177 H81         3.1880   -2.1820   -0.7770 ho        1 MOL      0.428091
    178 H82         2.7570   -0.7280   -0.7540 ho        1 MOL      0.428091
@<TRIPOS>BOND
     1    1    2 1   
     2    1    4 1   
     3    1    5 1   
     4    1    6 1   
     5    2    3 2   
     6    2    7 1   
     7    7    8 1   
     8    7   15 1   
     9    8    9 1   
    10    8   11 1   
    11    8   16 1   
    12    9   10 2   
    13    9   19 1   
    14   11   12 1   
    15   11   17 1   
    16   11   18 1   
    17   12   13 1   
    18   12   14 1   
    19   19   20 1   
    20   19   24 1   
    21   20   21 1   
    22   20   23 1   
    23   20   25 1   
    24   21   22 2   
    25   21   29 1   
    26   23   26 1   
    27   23   27 1   
    28   23   28 1   
    29   29   30 1   
    30   29   37 1   
    31   30   31 1   
    32   30   33 1   
    33   30   38 1   
    34   31   32 2   
    35   31   41 1   
    36   33   34 1   
    37   33   39 1   
    38   33   40 1   
    39   34   35 1   
    40   34   36 1   
    41   41   42 1   
    42   41   45 1   
    43   42   43 1   
    44   42   46 1   
    45   42   47 1   
    46   43   44 2   
    47   43   48 1   
    48   48   49 1   
    49   48   56 1   
    50   49   50 1   
    51   49   52 1   
    52   49   57 1   
    53   50   51 2   
    54   50   62 1   
    55   52   53 1   
    56   52   58 1   
    57   52   59 1   
    58   53   54 1   
    59   53   55 2   
    60   54   60 1   
    61   54   61 1   
    62   62   63 1   
    63   62   66 1   
    64   63   64 1   
    65   63   67 1   
    66   63   68 1   
    67   64   65 2   
    68   64   69 1   
    69   69   70 1   
    70   69   76 1   
    71   70   71 1   
    72   70   73 1   
    73   70   77 1   
    74   71   72 2   
    75   71   83 1   
    76   73   74 1   
    77   73   75 1   
    78   73   78 1   
    79   74   80 1   
    80   74   81 1   
    81   74   82 1   
    82   75   79 1   
    83   83   84 1   
    84   83   91 1   
    85   84   85 1   
    86   84   87 1   
    87   84   92 1   
    88   85   86 2   
    89   85  102 1   
    90   87   88 1   
    91   87   89 1   
    92   87   93 1   
    93   88   90 1   
    94   88   94 1   
    95   88   95 1   
    96   89   96 1   
    97   89   97 1   
    98   89   98 1   
    99   90   99 1   
   100   90  100 1   
   101   90  101 1   
   102  102  103 1   
   103  102  110 1   
   104  103  104 1   
   105  103  106 1   
   106  103  111 1   
   107  104  105 2   
   108  104  114 1   
   109  106  107 1   
   110  106  112 1   
   111  106  113 1   
   112  107  108 1   
   113  107  109 1   
   114  114  115 1   
   115  114  125 1   
   116  115  116 1   
   117  115  118 1   
   118  115  126 1   
   119  116  117 2   
   120  116  134 1   
   121  118  119 1   
   122  118  127 1   
   123  118  128 1   
   124  119  120 ar  
   125  119  121 ar  
   126  120  122 ar  
   127  120  129 1   
   128  121  123 ar  
   129  121  130 1   
   130  122  124 ar  
   131  122  131 1   
   132  123  124 ar  
   133  123  132 1   
   134  124  133 1   
   135  134  135 1   
   136  134  140 1   
   137  135  136 1   
   138  135  138 1   
   139  135  141 1   
   140  136  137 2   
   141  136  148 1   
   142  138  139 1   
   143  138  142 1   
   144  138  143 1   
   145  139  140 1   
   146  139  144 1   
   147  139  145 1   
   148  140  146 1   
   149  140  147 1   
   150  148  149 1   
   151  148  157 1   
   152  149  150 1   
   153  149  152 1   
   154  149  158 1   
   155  150  151 2   
   156  150  163 1   
   157  152  153 1   
   158  152  159 1   
   159  152  160 1   
   160  153  154 1   
   161  153  161 1   
   162  153  162 1   
   163  154  155 1   
   164  154  156 1   
   165  163  164 1   
   166  163  168 1   
   167  164  165 1   
   168  164  166 1   
   169  164  167 1   
   170  170  171 1   
   171  170  172 1   
   172  173  174 1   
   173  173  175 1   
   174  176  177 1   
   175  176  178 1   
@<TRIPOS>SUBSTRUCTURE
     1 MOL         1 TEMP              0 ****  ****    0 ROOT
