@<TRIPOS>MOLECULE
MOL
  178   175     1     0     0
SMALL
resp


@<TRIPOS>ATOM
      1 C1          1.2110    6.2400   -2.6230 c3        1 MOL     -0.384729
      2 C2          2.6820    6.4330   -2.2920 c         1 MOL      0.650523
      3 O1          3.0750    7.2860   -1.5000 o         1 MOL     -0.571109
      4 H1          0.6050    6.5240   -1.7630 hc        1 MOL      0.102691
      5 H2          0.9460    6.8650   -3.4770 hc        1 MOL      0.102691
      6 H3          1.0270    5.1940   -2.8670 hc        1 MOL      0.102691
      7 N1          3.5010    5.4400   -2.7450 n         1 MOL     -0.488985
      8 C3          4.7830    5.0460   -2.1130 c3        1 MOL      0.046240
      9 C4          4.5990    4.0080   -1.0440 c         1 MOL      0.553646
     10 O2          3.7040    3.1160   -1.0440 o         1 MOL     -0.582764
     11 C5          5.7210    4.5220   -3.2500 c3        1 MOL     -0.291845
     12 C6          7.0100    4.0540   -2.7420 c         1 MOL      0.739591
     13 O3          8.0550    4.6070   -3.1740 o         1 MOL     -0.725895
     14 O4          7.1540    2.9630   -2.0470 o         1 MOL     -0.725895
     15 H4          3.0690    4.9530   -3.5170 hn        1 MOL      0.276345
     16 H5          5.2610    5.8860   -1.5960 h1        1 MOL      0.090174
     17 H6          5.7670    5.3030   -4.0180 hc        1 MOL      0.071998
     18 H7          5.3660    3.6110   -3.7470 hc        1 MOL      0.071998
     19 N2          5.3460    4.2550    0.0260 n         1 MOL     -0.527917
     20 C7          5.0240    3.7840    1.4210 c3        1 MOL      0.350715
     21 C8          3.6150    4.0430    2.0430 c         1 MOL      0.436860
     22 O5          2.8600    4.8990    1.6010 o         1 MOL     -0.522763
     23 C9          6.2340    4.1930    2.3310 c3        1 MOL     -0.423851
     24 H8          6.1320    4.8610   -0.1510 hn        1 MOL      0.309912
     25 H9          5.0120    2.6940    1.3920 h1        1 MOL      0.098304
     26 H10         6.0380    4.0230    3.3960 hc        1 MOL      0.106074
     27 H11         7.1770    3.7830    1.9830 hc        1 MOL      0.106074
     28 H12         6.3400    5.2680    2.2080 hc        1 MOL      0.106074
     29 N3          3.0770    3.2510    2.9920 n         1 MOL     -0.421920
     30 C10         3.6780    2.1230    3.8030 c3        1 MOL     -0.010615
     31 C11         3.9780    0.9060    2.9390 c         1 MOL      0.279508
     32 O6          3.2860    0.5490    1.9700 o         1 MOL     -0.449430
     33 C12         2.6680    1.7120    4.9320 c3        1 MOL     -0.093384
     34 C13         1.1950    1.3710    4.4910 c         1 MOL      0.677385
     35 O7          0.2910    1.5790    5.3010 o         1 MOL     -0.684735
     36 O8          0.9690    0.9260    3.3610 o         1 MOL     -0.684735
     37 H13         2.1280    3.5450    3.1930 hn        1 MOL      0.302765
     38 H14         4.5850    2.5300    4.2560 h1        1 MOL      0.073442
     39 H15         2.6660    2.4640    5.7230 hc        1 MOL      0.025765
     40 H16         3.1600    0.8880    5.4650 hc        1 MOL      0.025765
     41 N4          5.0080    0.1220    3.3440 n         1 MOL     -0.348552
     42 C14         5.5070   -1.1280    2.6830 c3        1 MOL      0.064189
     43 C15         6.4310   -0.7360    1.5510 c         1 MOL      0.555310
     44 O9          6.7550    0.4250    1.3060 o         1 MOL     -0.491505
     45 H17         5.6250    0.4020    4.0920 hn        1 MOL      0.256120
     46 H18         4.6230   -1.6710    2.3350 h1        1 MOL      0.031912
     47 H19         5.9720   -1.8270    3.3760 h1        1 MOL      0.031912
     48 N5          6.9020   -1.7350    0.7650 n         1 MOL     -0.537397
     49 C16         6.3170   -3.0590    0.6410 c3        1 MOL     -0.084408
     50 C17         5.7370   -3.3500   -0.7740 c         1 MOL      0.438038
     51 O10         5.5340   -4.5110   -1.1090 o         1 MOL     -0.481910
     52 C18         7.1890   -4.1780    1.2510 c3        1 MOL     -0.281558
     53 C19         8.5650   -4.0260    0.7090 c         1 MOL      0.691421
     54 N6          9.5400   -4.3880    1.5160 n         1 MOL     -0.792158
     55 O11         8.8910   -3.7310   -0.4110 o         1 MOL     -0.514752
     56 H20         7.5160   -1.5020    0.0010 hn        1 MOL      0.327445
     57 H21         5.3890   -3.0610    1.2060 h1        1 MOL      0.155004
     58 H22         6.8300   -5.2000    1.0940 hc        1 MOL      0.113759
     59 H23         7.1230   -4.1020    2.3320 hc        1 MOL      0.113759
     60 H24         9.3080   -4.5190    2.4830 hn        1 MOL      0.354603
     61 H25        10.4780   -4.3240    1.1470 hn        1 MOL      0.354603
     62 N7          5.4260   -2.3830   -1.6350 n         1 MOL     -0.226143
     63 C20         5.0850   -2.5570   -3.0850 c3        1 MOL     -0.285000
     64 C21         3.7920   -3.4000   -3.2390 c         1 MOL      0.585142
     65 O12         3.5430   -3.9720   -4.2780 o         1 MOL     -0.535483
     66 H26         5.5560   -1.4030   -1.3880 hn        1 MOL      0.271666
     67 H27         5.9610   -3.0810   -3.4700 h1        1 MOL      0.151474
     68 H28         4.9680   -1.5890   -3.5690 h1        1 MOL      0.151474
     69 N8          2.8700   -3.2540   -2.2470 n         1 MOL     -0.210833
     70 C22         1.6410   -4.0000   -2.2710 c3        1 MOL     -0.135801
     71 C23         0.4050   -3.2300   -1.6990 c         1 MOL      0.456400
     72 O13         0.5160   -2.0680   -1.2830 o         1 MOL     -0.543610
     73 C24         1.7250   -5.2470   -1.3870 c3        1 MOL      0.476755
     74 C25         2.5300   -6.3760   -2.1000 c3        1 MOL     -0.405349
     75 O14         2.2090   -4.8800   -0.0920 oh        1 MOL     -0.689834
     76 H29         2.9930   -2.5730   -1.5070 hn        1 MOL      0.173010
     77 H30         1.2990   -4.2070   -3.2870 h1        1 MOL      0.089073
     78 H31         0.7460   -5.6900   -1.1770 h1        1 MOL     -0.028583
     79 H32         1.5460   -5.1990    0.5170 ho        1 MOL      0.446714
     80 H33         3.5770   -6.2110   -1.8240 hc        1 MOL      0.098573
     81 H34         2.2430   -7.4020   -1.8590 hc        1 MOL      0.098573
     82 H35         2.4230   -6.1220   -3.1460 hc        1 MOL      0.098573
     83 N9         -0.8490   -3.7910   -1.8180 n         1 MOL     -0.186119
     84 C26        -2.1380   -3.1940   -1.5530 c3        1 MOL     -0.305947
     85 C27        -2.6510   -3.6400   -0.1980 c         1 MOL      0.408743
     86 O15        -2.6960   -4.8570    0.0820 o         1 MOL     -0.566956
     87 C28        -3.1570   -3.5600   -2.7060 c3        1 MOL      0.359686
     88 C29        -4.4260   -2.7440   -2.4540 c3        1 MOL      0.145585
     89 C30        -2.6650   -3.2820   -4.1510 c3        1 MOL     -0.422431
     90 C31        -5.6500   -3.2130   -3.2070 c3        1 MOL     -0.155394
     91 H36        -0.7800   -4.6860   -2.2770 hn        1 MOL      0.187318
     92 H37        -2.0120   -2.1100   -1.5980 h1        1 MOL      0.221592
     93 H38        -3.4250   -4.6170   -2.6520 hc        1 MOL     -0.038529
     94 H39        -4.2040   -1.7050   -2.7010 hc        1 MOL     -0.094587
     95 H40        -4.6960   -2.7460   -1.3950 hc        1 MOL     -0.094587
     96 H41        -1.8170   -3.9310   -4.3220 hc        1 MOL      0.088319
     97 H42        -3.3960   -3.4610   -4.9310 hc        1 MOL      0.088319
     98 H43        -2.3560   -2.2320   -4.0660 hc        1 MOL      0.088319
     99 H44        -5.5790   -2.9890   -4.2690 hc        1 MOL      0.022347
    100 H45        -5.7120   -4.2960   -3.1560 hc        1 MOL      0.022347
    101 H46        -6.5660   -2.7610   -2.8070 hc        1 MOL      0.022347
    102 N10        -2.9790   -2.7140    0.6690 n         1 MOL     -0.072608
    103 C32        -3.5170   -2.8780    2.0530 c3        1 MOL     -0.066358
    104 C33        -4.8580   -2.1700    2.1930 c         1 MOL      0.419159
    105 O16        -5.5570   -2.3950    3.2020 o         1 MOL     -0.531631
    106 C34        -2.4570   -2.3180    3.0350 c3        1 MOL      0.023605
    107 C35        -1.0130   -2.7610    2.7470 c         1 MOL      0.640225
    108 O17        -0.7920   -4.0190    2.9650 o         1 MOL     -0.733410
    109 O18        -0.1940   -2.0680    2.2240 o         1 MOL     -0.733410
    110 H47        -2.7860   -1.7520    0.4340 hn        1 MOL      0.343772
    111 H48        -3.6720   -3.9340    2.2750 h1        1 MOL      0.096473
    112 H49        -2.8290   -2.4740    4.0430 hc        1 MOL     -0.004934
    113 H50        -2.3980   -1.2600    2.7890 hc        1 MOL     -0.004934
    114 N11        -5.3000   -1.2170    1.2830 n         1 MOL     -0.575579
    115 C36        -6.6640   -0.6050    1.4920 c3        1 MOL      0.423727
    116 C37        -6.4860    0.8220    0.9380 c         1 MOL      0.182539
    117 O19        -7.0280    1.2000   -0.0510 o         1 MOL     -0.414111
    118 C38        -7.6450   -1.4440    0.7060 c3        1 MOL     -0.498792
    119 C39        -9.0790   -0.9140    0.7680 ca        1 MOL      0.166649
    120 C40        -9.6160   -0.4620    1.9290 ca        1 MOL     -0.129285
    121 C41        -9.8760   -0.9500   -0.3430 ca        1 MOL     -0.129285
    122 C42       -10.9670   -0.0260    2.1230 ca        1 MOL     -0.169296
    123 C43       -11.2210   -0.5730   -0.2720 ca        1 MOL     -0.169296
    124 C44       -11.8210   -0.0700    0.9390 ca        1 MOL     -0.101824
    125 H51        -4.6630   -0.8710    0.5690 hn        1 MOL      0.449996
    126 H52        -6.8680   -0.5400    2.5610 h1        1 MOL      0.024745
    127 H53        -7.7390   -2.4220    1.1930 hc        1 MOL      0.178572
    128 H54        -7.3640   -1.3980   -0.3460 hc        1 MOL      0.178572
    129 H55        -9.0160   -0.4870    2.8310 ha        1 MOL      0.102471
    130 H56        -9.5390   -1.3590   -1.2770 ha        1 MOL      0.102471
    131 H57       -11.2890    0.4300    3.0400 ha        1 MOL      0.118832
    132 H58       -11.8200   -0.8470   -1.1290 ha        1 MOL      0.118832
    133 H59       -12.8930    0.0560    0.8920 ha        1 MOL      0.091247
    134 N12        -5.6200    1.8020    1.5000 n         1 MOL     -0.014955
    135 C45        -5.6270    3.1380    1.0850 c3        1 MOL      0.018601
    136 C46        -5.2190    3.4490   -0.3780 c         1 MOL      0.183147
    137 O20        -5.4200    4.5500   -0.9560 o         1 MOL     -0.478267
    138 C47        -4.6050    3.8310    2.0480 c3        1 MOL     -0.218092
    139 C48        -4.4640    2.8520    3.3090 c3        1 MOL      0.046904
    140 C49        -4.8510    1.5460    2.6860 c3        1 MOL     -0.093612
    141 H60        -6.6220    3.5420    1.2660 h1        1 MOL      0.083087
    142 H61        -3.5840    3.9640    1.6920 hc        1 MOL      0.091512
    143 H62        -5.0210    4.7810    2.3620 hc        1 MOL      0.091512
    144 H63        -3.4960    2.8540    3.8120 hc        1 MOL      0.020594
    145 H64        -5.1550    3.1870    4.0900 hc        1 MOL      0.020594
    146 H65        -3.9570    0.9850    2.4240 h1        1 MOL      0.059153
    147 H66        -5.4130    0.9380    3.3980 h1        1 MOL      0.059153
    148 N13        -4.5700    2.5080   -1.0440 n         1 MOL     -0.032120
    149 C50        -4.0190    2.5320   -2.4340 c3        1 MOL     -0.249336
    150 C51        -5.2010    2.7290   -3.4150 c         1 MOL      0.443995
    151 O21        -5.3030    3.5940   -4.3090 o         1 MOL     -0.514104
    152 C52        -3.2380    1.3130   -2.8370 c3        1 MOL      0.213175
    153 C53        -2.0430    0.9710   -1.8930 c3        1 MOL     -0.227264
    154 C54        -2.3690    0.3040   -0.5620 c         1 MOL      0.773583
    155 O22        -1.3800   -0.1390    0.0550 o         1 MOL     -0.842023
    156 O23        -3.5100   -0.0410   -0.2750 o         1 MOL     -0.842023
    157 H67        -4.5030    1.6080   -0.5930 hn        1 MOL      0.238784
    158 H68        -3.4420    3.4470   -2.5590 h1        1 MOL      0.126823
    159 H69        -2.9310    1.4980   -3.8730 hc        1 MOL     -0.022731
    160 H70        -3.8770    0.4310   -2.8520 hc        1 MOL     -0.022731
    161 H71        -1.5210    1.9080   -1.7240 hc        1 MOL      0.047292
    162 H72        -1.2920    0.3850   -2.4300 hc        1 MOL      0.047292
    163 N14        -6.2810    1.9400   -3.0450 n         1 MOL     -0.170454
    164 C55        -7.5140    2.0830   -3.8320 c3        1 MOL     -0.168064
    165 H73        -8.3470    2.3070   -3.1640 h1        1 MOL      0.069061
    166 H74        -7.3960    2.8950   -4.5490 h1        1 MOL      0.069061
    167 H75        -7.7150    1.1540   -4.3640 h1        1 MOL      0.069061
    168 H76        -6.2970    1.2920   -2.2740 hn        1 MOL      0.216305
    169 Ca1         0.9610   -0.1680    0.9090 Ca        1 MOL      1.813801
    170 O24         3.2070    0.5200   -0.9280 oh        1 MOL     -0.886593
    171 H77         4.1000    0.4660   -1.2560 ho        1 MOL      0.421047
    172 H78         3.0610    1.4440   -0.7520 ho        1 MOL      0.421047
    173 O25         2.4540   -2.2180    0.7700 oh        1 MOL     -0.886593
    174 H79         2.6530   -2.2970    1.7050 ho        1 MOL      0.421047
    175 H80         2.5000   -3.1210    0.4440 ho        1 MOL      0.421047
    176 O26         1.2070    2.4950    0.7600 oh        1 MOL     -0.886593
    177 H81         1.8300    3.1720    0.4830 ho        1 MOL      0.421047
    178 H82         0.4240    2.9870    1.0160 ho        1 MOL      0.421047
@<TRIPOS>BOND
     1    1    2 1   
     2    1    4 1   
     3    1    5 1   
     4    1    6 1   
     5    2    3 2   
     6    2    7 1   
     7    7    8 1   
     8    7   15 1   
     9    8    9 1   
    10    8   11 1   
    11    8   16 1   
    12    9   10 2   
    13    9   19 1   
    14   11   12 1   
    15   11   17 1   
    16   11   18 1   
    17   12   13 1   
    18   12   14 1   
    19   19   20 1   
    20   19   24 1   
    21   20   21 1   
    22   20   23 1   
    23   20   25 1   
    24   21   22 2   
    25   21   29 1   
    26   23   26 1   
    27   23   27 1   
    28   23   28 1   
    29   29   30 1   
    30   29   37 1   
    31   30   31 1   
    32   30   33 1   
    33   30   38 1   
    34   31   32 2   
    35   31   41 1   
    36   33   34 1   
    37   33   39 1   
    38   33   40 1   
    39   34   35 1   
    40   34   36 1   
    41   41   42 1   
    42   41   45 1   
    43   42   43 1   
    44   42   46 1   
    45   42   47 1   
    46   43   44 2   
    47   43   48 1   
    48   48   49 1   
    49   48   56 1   
    50   49   50 1   
    51   49   52 1   
    52   49   57 1   
    53   50   51 2   
    54   50   62 1   
    55   52   53 1   
    56   52   58 1   
    57   52   59 1   
    58   53   54 1   
    59   53   55 2   
    60   54   60 1   
    61   54   61 1   
    62   62   63 1   
    63   62   66 1   
    64   63   64 1   
    65   63   67 1   
    66   63   68 1   
    67   64   65 2   
    68   64   69 1   
    69   69   70 1   
    70   69   76 1   
    71   70   71 1   
    72   70   73 1   
    73   70   77 1   
    74   71   72 2   
    75   71   83 1   
    76   73   74 1   
    77   73   75 1   
    78   73   78 1   
    79   74   80 1   
    80   74   81 1   
    81   74   82 1   
    82   75   79 1   
    83   83   84 1   
    84   83   91 1   
    85   84   85 1   
    86   84   87 1   
    87   84   92 1   
    88   85   86 2   
    89   85  102 1   
    90   87   88 1   
    91   87   89 1   
    92   87   93 1   
    93   88   90 1   
    94   88   94 1   
    95   88   95 1   
    96   89   96 1   
    97   89   97 1   
    98   89   98 1   
    99   90   99 1   
   100   90  100 1   
   101   90  101 1   
   102  102  103 1   
   103  102  110 1   
   104  103  104 1   
   105  103  106 1   
   106  103  111 1   
   107  104  105 2   
   108  104  114 1   
   109  106  107 1   
   110  106  112 1   
   111  106  113 1   
   112  107  108 1   
   113  107  109 1   
   114  114  115 1   
   115  114  125 1   
   116  115  116 1   
   117  115  118 1   
   118  115  126 1   
   119  116  117 2   
   120  116  134 1   
   121  118  119 1   
   122  118  127 1   
   123  118  128 1   
   124  119  120 ar  
   125  119  121 ar  
   126  120  122 ar  
   127  120  129 1   
   128  121  123 ar  
   129  121  130 1   
   130  122  124 ar  
   131  122  131 1   
   132  123  124 ar  
   133  123  132 1   
   134  124  133 1   
   135  134  135 1   
   136  134  140 1   
   137  135  136 1   
   138  135  138 1   
   139  135  141 1   
   140  136  137 2   
   141  136  148 1   
   142  138  139 1   
   143  138  142 1   
   144  138  143 1   
   145  139  140 1   
   146  139  144 1   
   147  139  145 1   
   148  140  146 1   
   149  140  147 1   
   150  148  149 1   
   151  148  157 1   
   152  149  150 1   
   153  149  152 1   
   154  149  158 1   
   155  150  151 2   
   156  150  163 1   
   157  152  153 1   
   158  152  159 1   
   159  152  160 1   
   160  153  154 1   
   161  153  161 1   
   162  153  162 1   
   163  154  155 1   
   164  154  156 1   
   165  163  164 1   
   166  163  168 1   
   167  164  165 1   
   168  164  166 1   
   169  164  167 1   
   170  170  171 1   
   171  170  172 1   
   172  173  174 1   
   173  173  175 1   
   174  176  177 1   
   175  176  178 1   
@<TRIPOS>SUBSTRUCTURE
     1 MOL         1 TEMP              0 ****  ****    0 ROOT
