@<TRIPOS>MOLECULE
MOL
  195   189     1     0     0
SMALL
resp


@<TRIPOS>ATOM
      1 C1          5.5250   -5.2070    2.0770 c3        1 MOL     -0.337019
      2 C2          5.2020   -4.0140    1.1020 c         1 MOL      0.628494
      3 O1          6.0760   -3.4050    0.4570 o         1 MOL     -0.613893
      4 H1          5.3780   -6.1520    1.5550 hc        1 MOL      0.093624
      5 H2          6.5590   -5.1330    2.4120 hc        1 MOL      0.093624
      6 H3          4.8590   -5.1620    2.9390 hc        1 MOL      0.093624
      7 N1          3.9580   -3.5540    0.9260 n         1 MOL     -0.417349
      8 C3          2.7590   -4.2090    1.4580 c3        1 MOL      0.144462
      9 C4          2.2860   -5.3290    0.5020 c         1 MOL      0.426425
     10 O2          1.7670   -6.3830    0.8240 o         1 MOL     -0.547517
     11 C5          1.6460   -3.0950    1.5650 c3        1 MOL     -0.147992
     12 C6          2.0120   -1.9310    2.4900 c         1 MOL      0.617169
     13 O3          2.5680   -0.8820    2.1250 o         1 MOL     -0.678757
     14 O4          1.7090   -2.0370    3.7300 o         1 MOL     -0.678757
     15 H4          3.7750   -2.6460    0.5250 hn        1 MOL      0.257112
     16 H5          2.9180   -4.7790    2.3750 h1        1 MOL      0.031160
     17 H6          0.8310   -3.7130    1.9640 hc        1 MOL      0.067104
     18 H7          1.3670   -2.7360    0.5810 hc        1 MOL      0.067104
     19 N2          2.3670   -5.1130   -0.8380 n         1 MOL     -0.156522
     20 C7          2.0350   -6.0500   -1.9310 c3        1 MOL     -0.497461
     21 C8          0.5360   -6.2350   -2.2550 c         1 MOL      0.517928
     22 O5          0.2890   -7.0190   -3.1540 o         1 MOL     -0.564203
     23 C9          2.8300   -5.7230   -3.2170 c3        1 MOL      0.340119
     24 C10         2.5730   -4.2170   -3.6050 c3        1 MOL     -0.011546
     25 C11         4.3400   -5.9610   -3.0460 c3        1 MOL     -0.381219
     26 C12         2.8420   -3.8040   -5.1260 c3        1 MOL     -0.140614
     27 H8          2.8830   -4.2850   -1.0990 hn        1 MOL      0.149724
     28 H9          2.3760   -7.0060   -1.5400 h1        1 MOL      0.204475
     29 H10         2.5710   -6.3600   -4.0590 hc        1 MOL     -0.010432
     30 H11         3.1760   -3.5990   -2.9420 hc        1 MOL      0.055674
     31 H12         1.5180   -3.9740   -3.4990 hc        1 MOL      0.055674
     32 H13         4.8660   -5.5520   -3.9080 hc        1 MOL      0.079449
     33 H14         4.7050   -5.3070   -2.2550 hc        1 MOL      0.079449
     34 H15         4.4890   -7.0250   -2.8800 hc        1 MOL      0.079449
     35 H16         2.7610   -2.7230   -5.2270 hc        1 MOL      0.022238
     36 H17         3.7510   -4.1340   -5.6070 hc        1 MOL      0.022238
     37 H18         2.0330   -4.2840   -5.6830 hc        1 MOL      0.022238
     38 N3         -0.3750   -5.5630   -1.5660 n         1 MOL     -0.087240
     39 C13        -1.8520   -5.5480   -1.5310 c3        1 MOL     -0.105914
     40 C14        -2.4380   -5.0180   -0.2010 c         1 MOL      0.499348
     41 O6         -1.8480   -4.1290    0.3510 o         1 MOL     -0.467522
     42 C15        -2.5060   -4.8020   -2.6780 c3        1 MOL     -0.210085
     43 C16        -3.9630   -5.1360   -2.8630 c         1 MOL      0.763336
     44 O7         -4.6660   -4.3960   -3.5650 o         1 MOL     -0.725776
     45 O8         -4.4430   -6.1930   -2.3570 o         1 MOL     -0.725776
     46 H19         0.0480   -4.9060   -0.9310 hn        1 MOL      0.136830
     47 H20        -2.1360   -6.5810   -1.7020 h1        1 MOL      0.054177
     48 H21        -1.9730   -4.9440   -3.6240 hc        1 MOL      0.043538
     49 H22        -2.4360   -3.7190   -2.5650 hc        1 MOL      0.043538
     50 N4         -3.5910   -5.4950    0.2000 n         1 MOL     -0.515080
     51 C17        -4.3100   -4.9170    1.3250 c3        1 MOL      0.070709
     52 C18        -4.7670   -3.4420    1.1070 c         1 MOL      0.505329
     53 O9         -4.5710   -2.9160    0.0230 o         1 MOL     -0.462117
     54 H23        -4.1010   -6.0790   -0.4440 hn        1 MOL      0.325757
     55 H24        -3.6730   -4.8670    2.2000 h1        1 MOL      0.051494
     56 H25        -5.0940   -5.6260    1.5940 h1        1 MOL      0.051494
     57 N5         -5.3230   -2.8140    2.1330 n         1 MOL     -0.545304
     58 C19        -5.7440   -1.4260    2.1520 c3        1 MOL      0.498323
     59 C20        -7.0190   -1.1100    3.0130 c         1 MOL      0.301622
     60 O10        -7.4280   -1.8830    4.0210 o         1 MOL     -0.513219
     61 C21        -4.4790   -0.5900    2.6060 c3        1 MOL     -0.006158
     62 C22        -3.8330   -1.1370    3.8620 c         1 MOL      0.500162
     63 O11        -4.4590   -1.7520    4.7670 o         1 MOL     -0.652017
     64 O12        -2.5920   -0.9830    3.9960 o         1 MOL     -0.652017
     65 H26        -5.5510   -3.4470    2.8940 hn        1 MOL      0.260633
     66 H27        -5.9480   -1.1990    1.0990 h1        1 MOL     -0.029359
     67 H28        -4.6280    0.4930    2.6620 hc        1 MOL     -0.024237
     68 H29        -3.7160   -0.7270    1.8360 hc        1 MOL     -0.024237
     69 N6         -7.7750   -0.0250    2.7650 n         1 MOL     -0.443761
     70 C23        -7.6490    0.9160    1.6440 c3        1 MOL     -0.024133
     71 C24        -8.1520    0.5000    0.2390 c         1 MOL      0.544035
     72 O13        -8.7260   -0.6040    0.1090 o         1 MOL     -0.524384
     73 H30        -8.4370    0.2170    3.4960 hn        1 MOL      0.302623
     74 H31        -6.5730    1.0050    1.4970 h1        1 MOL      0.059341
     75 H32        -8.0590    1.8920    1.9010 h1        1 MOL      0.059341
     76 N7         -8.0530    1.2400   -0.8440 n         1 MOL     -0.573443
     77 C25        -6.9880    2.2140   -1.0350 c3        1 MOL      0.244587
     78 C26        -5.5670    1.6090   -0.9040 c         1 MOL      0.595600
     79 O14        -5.3590    0.4840   -0.4470 o         1 MOL     -0.479212
     80 C27        -7.1400    3.5260   -0.2350 c3        1 MOL     -0.028808
     81 C28        -8.5690    4.0600   -0.3070 c3        1 MOL     -0.248028
     82 C29        -8.7570    5.2230    0.6580 c         1 MOL      0.701878
     83 N8         -9.8000    5.1900    1.4520 n         1 MOL     -0.777052
     84 O15        -8.0930    6.2550    0.7330 o         1 MOL     -0.571736
     85 H33        -8.3770    0.8210   -1.7130 hn        1 MOL      0.329221
     86 H34        -7.0760    2.4800   -2.0870 h1        1 MOL      0.017329
     87 H35        -6.4640    4.2170   -0.7430 hc        1 MOL      0.001311
     88 H36        -6.8630    3.3120    0.7950 hc        1 MOL      0.001311
     89 H37        -9.3110    3.3160   -0.0180 hc        1 MOL      0.061047
     90 H38        -8.9230    4.3900   -1.2860 hc        1 MOL      0.061047
     91 H39       -10.4820    4.4450    1.3260 hn        1 MOL      0.352336
     92 H40        -9.9860    5.9670    2.0750 hn        1 MOL      0.352336
     93 N9         -4.5530    2.3940   -1.3120 n         1 MOL     -0.690261
     94 C30        -3.0900    2.0540   -1.2160 c3        1 MOL      0.191159
     95 C31        -2.4700    1.5490   -2.5660 c         1 MOL      0.523282
     96 O16        -2.8890    1.9640   -3.6770 o         1 MOL     -0.578410
     97 C32        -2.3060    3.2750   -0.6410 c3        1 MOL      0.200545
     98 C33        -2.4230    3.4150    0.8670 c3        1 MOL     -0.286499
     99 C34        -2.6370    4.5710   -1.4590 c3        1 MOL     -0.286499
    100 H41        -4.8040    3.3210   -1.6230 hn        1 MOL      0.331812
    101 H42        -2.9530    1.2120   -0.5450 h1        1 MOL      0.044916
    102 H43        -1.2570    3.0420   -0.8180 hc        1 MOL      0.008725
    103 H44        -3.3490    3.9060    1.1730 hc        1 MOL      0.074032
    104 H45        -2.3790    2.4050    1.2730 hc        1 MOL      0.074032
    105 H46        -1.6200    4.0690    1.2020 hc        1 MOL      0.074032
    106 H47        -3.5750    5.0560   -1.2090 hc        1 MOL      0.074032
    107 H48        -1.7960    5.2410   -1.3090 hc        1 MOL      0.074032
    108 H49        -2.7520    4.3700   -2.5320 hc        1 MOL      0.074032
    109 N10        -1.3590    0.8050   -2.5620 n         1 MOL     -0.351487
    110 C35        -0.5170    0.2510   -3.6600 c3        1 MOL      0.184189
    111 C36         0.8770    0.7750   -3.8240 c         1 MOL      0.256164
    112 O17         1.6320    0.3600   -4.7340 o         1 MOL     -0.473906
    113 C37        -0.4560   -1.3300   -3.5710 c3        1 MOL     -0.427920
    114 C38         0.2190   -1.7390   -2.2710 c         1 MOL      0.587639
    115 N11        -0.5210   -2.1470   -1.2920 n         1 MOL     -0.576108
    116 O18         1.4090   -1.6110   -1.9990 o         1 MOL     -0.556056
    117 H50        -1.1490    0.4070   -1.6510 hn        1 MOL      0.217376
    118 H51        -1.0880    0.4270   -4.5720 h1        1 MOL      0.105087
    119 H52         0.1830   -1.7880   -4.3230 hc        1 MOL      0.156542
    120 H53        -1.4780   -1.7010   -3.5300 hc        1 MOL      0.156542
    121 H54        -1.5260   -2.1550   -1.3560 hn        1 MOL      0.298876
    122 H55        -0.0700   -2.5430   -0.4840 hn        1 MOL      0.298876
    123 N12         1.2790    1.8050   -3.0560 n         1 MOL     -0.267686
    124 C39         2.6810    2.2270   -3.0230 c3        1 MOL      0.119840
    125 C40         3.1130    2.7170   -1.5930 c         1 MOL      0.664498
    126 O19         2.2440    2.6910   -0.7530 o         1 MOL     -0.565087
    127 C41         2.8500    3.3920   -4.0220 c3        1 MOL     -0.043456
    128 C42         1.7720    4.4660   -3.9930 ca        1 MOL      0.098577
    129 C43         1.9160    5.6200   -3.1820 ca        1 MOL     -0.198673
    130 C44         0.6170    4.3470   -4.8720 ca        1 MOL     -0.198673
    131 C45         0.9620    6.6100   -3.2320 ca        1 MOL     -0.209036
    132 C46        -0.4270    5.3090   -4.8090 ca        1 MOL     -0.209036
    133 C47        -0.2430    6.4200   -3.9590 ca        1 MOL      0.234675
    134 O20        -1.1500    7.4300   -3.8590 oh        1 MOL     -0.466002
    135 H56         0.7150    2.0100   -2.2380 hn        1 MOL      0.173461
    136 H57         3.3920    1.4530   -3.2900 h1        1 MOL      0.054214
    137 H58         2.9370    2.9990   -5.0390 hc        1 MOL      0.002235
    138 H59         3.8260    3.8530   -3.8810 hc        1 MOL      0.002235
    139 H60         2.8050    5.5980   -2.5780 ha        1 MOL      0.145651
    140 H61         0.4650    3.4240   -5.4110 ha        1 MOL      0.145651
    141 H62         1.1210    7.5520   -2.7180 ha        1 MOL      0.149207
    142 H63        -1.3000    5.2500   -5.4540 ha        1 MOL      0.149207
    143 H64        -1.8870    7.1980   -4.4230 ho        1 MOL      0.340299
    144 N13         4.3740    3.0340   -1.3400 n         1 MOL     -0.518510
    145 C48         4.8740    3.5050    0.0010 c3        1 MOL     -0.143474
    146 C49         6.1490    2.6560    0.2430 c         1 MOL      0.596975
    147 O21         7.2510    2.9310   -0.2600 o         1 MOL     -0.520489
    148 C50         5.1200    5.0260    0.0040 c3        1 MOL      0.059313
    149 C51         5.1670    5.4370    1.4880 c3        1 MOL     -0.281232
    150 C52         5.3780    6.9500    1.5930 c         1 MOL      0.730480
    151 O22         6.3330    7.3950    2.3060 o         1 MOL     -0.745669
    152 O23         4.5780    7.6870    1.0140 o         1 MOL     -0.745669
    153 H65         5.0230    2.7900   -2.0720 hn        1 MOL      0.279952
    154 H66         4.0910    3.2940    0.7310 h1        1 MOL      0.139856
    155 H67         4.3150    5.5060   -0.5570 hc        1 MOL      0.032999
    156 H68         5.9910    5.3060   -0.5760 hc        1 MOL      0.032999
    157 H69         5.9940    4.9320    1.9860 hc        1 MOL      0.051923
    158 H70         4.2010    5.1450    1.8850 hc        1 MOL      0.051923
    159 N14         5.9170    1.4980    0.9080 n         1 MOL     -0.273214
    160 C53         6.9470    0.4800    1.0270 c3        1 MOL     -0.407352
    161 C54         7.2850   -0.0320   -0.3870 c         1 MOL      0.564478
    162 O24         8.4370   -0.3100   -0.7040 o         1 MOL     -0.560029
    163 C55         6.4750   -0.5490    2.0500 c3        1 MOL      0.399410
    164 C56         6.4310   -0.0010    3.4950 c3        1 MOL     -0.430232
    165 C57         5.0290    0.2830    3.9710 c         1 MOL      0.871186
    166 O25         4.5000    1.3980    3.7270 o         1 MOL     -0.798794
    167 O26         4.3250   -0.6120    4.5270 o         1 MOL     -0.798794
    168 H71         5.0140    1.4780    1.3720 hn        1 MOL      0.197044
    169 H72         7.8210    0.9090    1.5150 h1        1 MOL      0.157408
    170 H73         7.2100   -1.3550    2.1150 hc        1 MOL     -0.016625
    171 H74         5.5860   -1.0920    1.7310 hc        1 MOL     -0.016625
    172 H75         7.0220    0.8950    3.6740 hc        1 MOL      0.077495
    173 H76         6.9050   -0.6870    4.1810 hc        1 MOL      0.077495
    174 N15         6.2790   -0.0910   -1.2760 n         1 MOL     -0.138971
    175 C58         6.4480   -0.3400   -2.7260 c3        1 MOL     -0.254220
    176 H77         5.5630   -0.8440   -3.1140 h1        1 MOL      0.102186
    177 H78         6.5820    0.6100   -3.2450 h1        1 MOL      0.102186
    178 H79         7.3240   -0.9690   -2.8880 h1        1 MOL      0.102186
    179 H80         5.3870    0.2260   -0.9380 hn        1 MOL      0.152708
    180 Ca1         2.0620    0.5470    4.2810 Ca        1 MOL      1.754685
    181 O27         1.3800    1.7380    1.7470 oh        1 MOL     -0.850995
    182 H81         0.5810    1.4920    1.2810 ho        1 MOL      0.413081
    183 H82         2.0200    1.9110    1.0580 ho        1 MOL      0.413081
    184 O28        -0.6150    0.7650    3.6660 oh        1 MOL     -0.850995
    185 H83        -1.1060    1.5640    3.8390 ho        1 MOL      0.413081
    186 H84        -1.1450    0.0760    4.0650 ho        1 MOL      0.413081
    187 O29         1.7660    3.1880    4.2230 oh        1 MOL     -0.850995
    188 H85         2.5080    3.6650    4.5930 ho        1 MOL      0.413081
    189 H86         1.5710    3.6300    3.3940 ho        1 MOL      0.413081
    190 O30         0.5530   -0.7120    6.0430 oh        1 MOL     -0.850995
    191 H87         0.4920   -1.6050    6.3920 ho        1 MOL      0.413081
    192 H88        -0.0590   -0.2080    6.5880 ho        1 MOL      0.413081
    193 O31         2.7000    1.6840    6.6940 oh        1 MOL     -0.850995
    194 H89         2.0400    1.8860    7.3660 ho        1 MOL      0.413081
    195 H90         3.5450    1.7690    7.1430 ho        1 MOL      0.413081
@<TRIPOS>BOND
     1    1    2 1   
     2    1    4 1   
     3    1    5 1   
     4    1    6 1   
     5    2    3 2   
     6    2    7 1   
     7    7    8 1   
     8    7   15 1   
     9    8    9 1   
    10    8   11 1   
    11    8   16 1   
    12    9   10 2   
    13    9   19 1   
    14   11   12 1   
    15   11   17 1   
    16   11   18 1   
    17   12   13 1   
    18   12   14 1   
    19   19   20 1   
    20   19   27 1   
    21   20   21 1   
    22   20   23 1   
    23   20   28 1   
    24   21   22 2   
    25   21   38 1   
    26   23   24 1   
    27   23   25 1   
    28   23   29 1   
    29   24   26 1   
    30   24   30 1   
    31   24   31 1   
    32   25   32 1   
    33   25   33 1   
    34   25   34 1   
    35   26   35 1   
    36   26   36 1   
    37   26   37 1   
    38   38   39 1   
    39   38   46 1   
    40   39   40 1   
    41   39   42 1   
    42   39   47 1   
    43   40   41 2   
    44   40   50 1   
    45   42   43 1   
    46   42   48 1   
    47   42   49 1   
    48   43   44 1   
    49   43   45 1   
    50   50   51 1   
    51   50   54 1   
    52   51   52 1   
    53   51   55 1   
    54   51   56 1   
    55   52   53 2   
    56   52   57 1   
    57   57   58 1   
    58   57   65 1   
    59   58   59 1   
    60   58   61 1   
    61   58   66 1   
    62   59   60 2   
    63   59   69 1   
    64   61   62 1   
    65   61   67 1   
    66   61   68 1   
    67   62   63 1   
    68   62   64 1   
    69   69   70 1   
    70   69   73 1   
    71   70   71 1   
    72   70   74 1   
    73   70   75 1   
    74   71   72 2   
    75   71   76 1   
    76   76   77 1   
    77   76   85 1   
    78   77   78 1   
    79   77   80 1   
    80   77   86 1   
    81   78   79 2   
    82   78   93 1   
    83   80   81 1   
    84   80   87 1   
    85   80   88 1   
    86   81   82 1   
    87   81   89 1   
    88   81   90 1   
    89   82   83 1   
    90   82   84 2   
    91   83   91 1   
    92   83   92 1   
    93   93   94 1   
    94   93  100 1   
    95   94   95 1   
    96   94   97 1   
    97   94  101 1   
    98   95   96 2   
    99   95  109 1   
   100   97   98 1   
   101   97   99 1   
   102   97  102 1   
   103   98  103 1   
   104   98  104 1   
   105   98  105 1   
   106   99  106 1   
   107   99  107 1   
   108   99  108 1   
   109  109  110 1   
   110  109  117 1   
   111  110  111 1   
   112  110  113 1   
   113  110  118 1   
   114  111  112 2   
   115  111  123 1   
   116  113  114 1   
   117  113  119 1   
   118  113  120 1   
   119  114  115 1   
   120  114  116 2   
   121  115  121 1   
   122  115  122 1   
   123  123  124 1   
   124  123  135 1   
   125  124  125 1   
   126  124  127 1   
   127  124  136 1   
   128  125  126 2   
   129  125  144 1   
   130  127  128 1   
   131  127  137 1   
   132  127  138 1   
   133  128  129 ar  
   134  128  130 ar  
   135  129  131 ar  
   136  129  139 1   
   137  130  132 ar  
   138  130  140 1   
   139  131  133 ar  
   140  131  141 1   
   141  132  133 ar  
   142  132  142 1   
   143  133  134 1   
   144  134  143 1   
   145  144  145 1   
   146  144  153 1   
   147  145  146 1   
   148  145  148 1   
   149  145  154 1   
   150  146  147 2   
   151  146  159 1   
   152  148  149 1   
   153  148  155 1   
   154  148  156 1   
   155  149  150 1   
   156  149  157 1   
   157  149  158 1   
   158  150  151 1   
   159  150  152 1   
   160  159  160 1   
   161  159  168 1   
   162  160  161 1   
   163  160  163 1   
   164  160  169 1   
   165  161  162 2   
   166  161  174 1   
   167  163  164 1   
   168  163  170 1   
   169  163  171 1   
   170  164  165 1   
   171  164  172 1   
   172  164  173 1   
   173  165  166 1   
   174  165  167 1   
   175  174  175 1   
   176  174  179 1   
   177  175  176 1   
   178  175  177 1   
   179  175  178 1   
   180  181  182 1   
   181  181  183 1   
   182  184  185 1   
   183  184  186 1   
   184  187  188 1   
   185  187  189 1   
   186  190  191 1   
   187  190  192 1   
   188  193  194 1   
   189  193  195 1   
@<TRIPOS>SUBSTRUCTURE
     1 MOL         1 TEMP              0 ****  ****    0 ROOT
