@<TRIPOS>MOLECULE
MOL
  191   184     1     0     0
SMALL
resp


@<TRIPOS>ATOM
      1 C1         -6.3600   -1.9280    3.8110 c3        1 MOL     -0.312650
      2 C2         -6.4980   -1.7760    2.3240 c         1 MOL      0.646033
      3 O1         -5.8340   -0.9900    1.6480 o         1 MOL     -0.515270
      4 H1         -7.2660   -1.5650    4.2980 hc        1 MOL      0.080033
      5 H2         -6.2120   -2.9790    4.0570 hc        1 MOL      0.080033
      6 H3         -5.5040   -1.3480    4.1590 hc        1 MOL      0.080033
      7 N1         -7.5720   -2.4890    1.8120 n         1 MOL     -0.590031
      8 C3         -8.0360   -2.5500    0.3860 c3        1 MOL      0.130987
      9 C4         -8.7140   -1.2290   -0.0820 c         1 MOL      0.383032
     10 O2         -9.7560   -1.2110   -0.7430 o         1 MOL     -0.497109
     11 C5         -6.8640   -2.9570   -0.6220 c3        1 MOL     -0.243137
     12 C6         -7.1890   -3.6070   -1.9060 c         1 MOL      0.778518
     13 O3         -8.3120   -4.1460   -1.9360 o         1 MOL     -0.668806
     14 O4         -6.3790   -3.6300   -2.7860 o         1 MOL     -0.668806
     15 H4         -8.1420   -3.1030    2.3730 hn        1 MOL      0.335271
     16 H5         -8.8850   -3.2390    0.3320 h1        1 MOL      0.066600
     17 H6         -6.3240   -3.6820   -0.0120 hc        1 MOL      0.098684
     18 H7         -6.2170   -2.0890   -0.7740 hc        1 MOL      0.098684
     19 N2         -8.0840   -0.0810    0.2090 n         1 MOL     -0.148517
     20 C7         -8.2730    1.2960   -0.2530 c3        1 MOL     -0.049979
     21 C8         -6.9400    1.9600   -0.5310 c         1 MOL      0.549336
     22 O5         -6.9950    3.1490   -0.9540 o         1 MOL     -0.555063
     23 C9         -9.2990    2.0630    0.6270 c3        1 MOL     -0.056773
     24 C10        -8.7950    2.1560    2.0460 c3        1 MOL      0.120388
     25 C11        -9.3730    3.3250    2.9190 c3        1 MOL     -0.013310
     26 C12        -8.9500    3.1580    4.3270 c3        1 MOL      0.027543
     27 N3         -9.4370    4.2140    5.2300 n4        1 MOL     -0.112566
     28 H8         -7.3980   -0.1810    0.9400 hn        1 MOL      0.045284
     29 H9         -8.7550    1.1010   -1.2180 h1        1 MOL      0.125916
     30 H10       -10.2510    1.5530    0.6600 hc        1 MOL      0.030074
     31 H11        -9.3700    3.0830    0.2440 hc        1 MOL      0.030074
     32 H12        -7.7150    2.3500    2.0650 hc        1 MOL     -0.003716
     33 H13        -9.0600    1.2380    2.5790 hc        1 MOL     -0.003716
     34 H14       -10.4590    3.4140    2.8170 hc        1 MOL      0.017008
     35 H15        -8.8650    4.1860    2.4890 hc        1 MOL      0.017008
     36 H16        -7.8700    3.2560    4.4180 hx        1 MOL      0.054266
     37 H17        -9.3370    2.2290    4.7380 hx        1 MOL      0.054266
     38 H18        -9.3060    5.1460    4.8530 hn        1 MOL      0.212572
     39 H19       -10.4300    4.0910    5.3390 hn        1 MOL      0.212572
     40 H20        -8.9810    4.1530    6.1250 hn        1 MOL      0.212572
     41 N4         -5.7540    1.2860   -0.3980 n         1 MOL     -0.275570
     42 C13        -4.4220    1.9160   -0.5720 c3        1 MOL     -0.023824
     43 C14        -4.0710    1.9450   -2.0780 c         1 MOL      0.441269
     44 O6         -4.4380    1.0290   -2.7730 o         1 MOL     -0.430469
     45 C15        -3.3180    1.1420    0.1400 c3        1 MOL     -0.087210
     46 C16        -1.9910    1.7600   -0.0270 c         1 MOL      0.976621
     47 O7         -1.3190    1.2990   -0.9400 o         1 MOL     -0.875165
     48 O8         -1.4750    2.5640    0.7890 o         1 MOL     -0.875165
     49 H21        -5.7300    0.3020   -0.1670 hn        1 MOL      0.137637
     50 H22        -4.5130    2.9500   -0.2360 h1        1 MOL      0.024966
     51 H23        -3.2820    0.1200   -0.2280 hc        1 MOL      0.024018
     52 H24        -3.6070    1.2490    1.1900 hc        1 MOL      0.024018
     53 N5         -3.3100    2.9480   -2.5330 n         1 MOL     -0.266496
     54 C17        -3.0200    3.1820   -3.9810 c3        1 MOL     -0.207993
     55 C18        -2.1390    2.1720   -4.7400 c         1 MOL      0.525899
     56 O9         -2.1690    2.0490   -5.9510 o         1 MOL     -0.531474
     57 H25        -3.0520    3.6550   -1.8590 hn        1 MOL      0.192510
     58 H26        -2.5670    4.1660   -4.1170 h1        1 MOL      0.115242
     59 H27        -3.9730    3.1320   -4.5020 h1        1 MOL      0.115242
     60 N6         -1.4010    1.3690   -3.9890 n         1 MOL     -0.296967
     61 C19        -0.4720    0.2670   -4.4220 c3        1 MOL      0.063410
     62 C20        -1.0820   -1.0600   -4.2280 c         1 MOL      0.536674
     63 O10        -0.6240   -2.0740   -4.6880 o         1 MOL     -0.568415
     64 C21         0.7600    0.1090   -3.5240 c3        1 MOL     -0.354572
     65 C22         1.5750    1.3920   -3.4400 c         1 MOL      0.771651
     66 N7          2.5530    1.5360   -4.3480 n         1 MOL     -0.823668
     67 O11         1.3520    2.2510   -2.5690 o         1 MOL     -0.681533
     68 H28        -1.5060    1.4980   -2.9970 hn        1 MOL      0.254817
     69 H29        -0.3060    0.4270   -5.4850 h1        1 MOL      0.095411
     70 H30         1.3940   -0.7050   -3.8610 hc        1 MOL      0.072142
     71 H31         0.4690   -0.1360   -2.5020 hc        1 MOL      0.072142
     72 H32         2.7100    0.7930   -5.0170 hn        1 MOL      0.399140
     73 H33         3.2340    2.2760   -4.2190 hn        1 MOL      0.399140
     74 N8         -2.1280   -1.1310   -3.3910 n         1 MOL     -0.224639
     75 C23        -2.9390   -2.2480   -3.0040 c3        1 MOL      0.047339
     76 C24        -2.6430   -2.9100   -1.6610 c         1 MOL      0.379661
     77 O12        -3.1430   -4.0680   -1.4420 o         1 MOL     -0.493633
     78 H34        -2.4280   -0.2150   -3.0940 hn        1 MOL      0.096325
     79 H35        -2.9010   -3.0460   -3.7480 h1        1 MOL      0.088061
     80 H36        -3.9470   -1.8330   -3.0260 h1        1 MOL      0.088061
     81 N9         -1.8650   -2.2550   -0.7830 n         1 MOL     -0.256653
     82 C25        -1.3380   -2.6800    0.5190 c3        1 MOL     -0.023838
     83 C26         0.0200   -2.0070    0.6800 c         1 MOL      0.604417
     84 O13         0.3380   -1.0030    0.0780 o         1 MOL     -0.462425
     85 C27        -2.4290   -2.2300    1.6740 c3        1 MOL     -0.137518
     86 C28        -1.8630   -2.4620    3.0850 ca        1 MOL      0.111460
     87 C29        -1.5460   -3.7190    3.5890 ca        1 MOL     -0.188815
     88 C30        -1.4580   -1.3310    3.8330 ca        1 MOL     -0.188815
     89 C31        -0.9010   -3.9350    4.7980 ca        1 MOL     -0.269415
     90 C32        -0.8470   -1.5060    5.0890 ca        1 MOL     -0.269415
     91 C33        -0.6390   -2.8140    5.6390 ca        1 MOL      0.315920
     92 O14         0.0900   -2.9970    6.7530 oh        1 MOL     -0.461986
     93 H37        -1.4590   -1.3950   -1.1360 hn        1 MOL      0.202058
     94 H38        -1.2700   -3.7630    0.5790 h1        1 MOL      0.057497
     95 H39        -3.4130   -2.6900    1.5770 hc        1 MOL      0.081585
     96 H40        -2.6210   -1.1750    1.4770 hc        1 MOL      0.081585
     97 H41        -1.8850   -4.6190    3.0780 ha        1 MOL      0.147769
     98 H42        -1.6270   -0.3420    3.4320 ha        1 MOL      0.147769
     99 H43        -0.6720   -4.9480    5.1230 ha        1 MOL      0.158839
    100 H44        -0.5240   -0.6560    5.6830 ha        1 MOL      0.158839
    101 H45         0.3130   -2.1960    7.2360 ho        1 MOL      0.364436
    102 N10         0.9690   -2.7760    1.3230 n         1 MOL     -0.473967
    103 C34         2.3910   -2.4090    1.4620 c3        1 MOL     -0.059873
    104 C35         3.2050   -2.1160    0.1250 c         1 MOL      0.120663
    105 O15         4.1340   -1.3100    0.0320 o         1 MOL     -0.420134
    106 C36         3.1750   -3.2810    2.4690 c3        1 MOL      0.182743
    107 C37         2.6120   -2.9330    3.8950 c3        1 MOL      0.079544
    108 C38         4.7020   -3.0200    2.4550 c3        1 MOL     -0.296190
    109 C39         3.0210   -3.9540    5.0260 c3        1 MOL     -0.322643
    110 H46         0.6230   -3.6370    1.7150 hn        1 MOL      0.307011
    111 H47         2.4560   -1.4570    1.9910 h1        1 MOL      0.036070
    112 H48         2.9400   -4.2950    2.1650 hc        1 MOL     -0.027603
    113 H49         1.5280   -2.9820    3.8700 hc        1 MOL      0.025438
    114 H50         2.8970   -1.9090    4.1330 hc        1 MOL      0.025438
    115 H51         4.8480   -1.9590    2.6590 hc        1 MOL      0.092457
    116 H52         5.1590   -3.5580    3.2850 hc        1 MOL      0.092457
    117 H53         5.1730   -3.3760    1.5360 hc        1 MOL      0.092457
    118 H54         2.9310   -4.9770    4.6720 hc        1 MOL      0.079538
    119 H55         4.0550   -3.7120    5.3060 hc        1 MOL      0.079538
    120 H56         2.3080   -3.9190    5.8450 hc        1 MOL      0.079538
    121 N11         2.7420   -2.7610   -0.9180 n         1 MOL      0.298740
    122 C40         3.2050   -2.6010   -2.2520 c3        1 MOL     -0.609988
    123 C41         4.6470   -2.8770   -2.5980 c         1 MOL      0.541427
    124 O16         5.3290   -2.3250   -3.4880 o         1 MOL     -0.529573
    125 C42         2.2530   -3.2800   -3.2640 c3        1 MOL      0.326293
    126 O17         2.0240   -4.6410   -2.9640 oh        1 MOL     -0.672480
    127 H57         1.9560   -3.3740   -0.7650 hn        1 MOL      0.114513
    128 H58         3.0340   -1.5430   -2.4280 h1        1 MOL      0.223787
    129 H59         2.5730   -3.2630   -4.3010 h1        1 MOL      0.043041
    130 H60         1.3360   -2.6870   -3.3020 h1        1 MOL      0.043041
    131 H61         1.5230   -5.1300   -3.6130 ho        1 MOL      0.439402
    132 N12         5.3320   -3.5220   -1.6580 n         1 MOL     -0.250241
    133 C43         6.8290   -3.7630   -1.6650 c3        1 MOL      0.329793
    134 C44         7.6160   -2.4360   -1.7190 c         1 MOL      0.239220
    135 O18         8.6500   -2.3990   -2.3530 o         1 MOL     -0.480093
    136 C45         7.1750   -4.7800   -2.7370 c3        1 MOL     -0.275583
    137 H62         4.7670   -3.9420   -0.9370 hn        1 MOL      0.161998
    138 H63         6.9910   -4.2880   -0.7190 h1        1 MOL      0.011506
    139 H64         6.9080   -4.3720   -3.7060 hc        1 MOL      0.073417
    140 H65         8.1950   -5.1320   -2.5980 hc        1 MOL      0.073417
    141 H66         6.5890   -5.6940   -2.5900 hc        1 MOL      0.073417
    142 N13         7.0110   -1.3690   -1.1630 n         1 MOL     -0.069932
    143 C46         7.4450    0.0660   -1.1430 c3        1 MOL      0.275067
    144 C47         7.6560    0.6180    0.2970 c         1 MOL      0.197457
    145 O19         6.9520    0.2260    1.2680 o         1 MOL     -0.416293
    146 C48         6.4490    0.9310   -1.9830 c3        1 MOL     -0.087139
    147 H67         6.3300   -1.6100   -0.4540 hn        1 MOL      0.013742
    148 H68         8.4290    0.0170   -1.6010 h1        1 MOL     -0.020147
    149 H69         6.3390    0.5550   -3.0000 hc        1 MOL      0.018034
    150 H70         5.4460    0.9140   -1.5490 hc        1 MOL      0.018034
    151 H71         6.8420    1.9370   -2.1210 hc        1 MOL      0.018034
    152 N14         8.5860    1.5700    0.5180 n         1 MOL     -0.270064
    153 C49         8.8890    2.3560    1.7840 c3        1 MOL      0.015821
    154 C50         9.2970    1.4560    2.9290 c         1 MOL      0.461460
    155 O20         8.9420    1.7980    4.0390 o         1 MOL     -0.506627
    156 C51         7.7620    3.3380    2.0780 c3        1 MOL      0.257201
    157 C52         7.5300    4.4310    0.9280 c3        1 MOL     -0.242607
    158 C53         6.3050    5.3090    1.3770 c         1 MOL      0.605517
    159 O21         6.3600    6.0160    2.3740 o         1 MOL     -0.650322
    160 O22         5.2550    5.2010    0.6880 o         1 MOL     -0.650322
    161 H72         9.2950    1.6460   -0.2020 hn        1 MOL      0.218578
    162 H73         9.7880    2.9530    1.6240 h1        1 MOL      0.031318
    163 H74         7.9420    3.8690    3.0080 hc        1 MOL     -0.025844
    164 H75         6.8140    2.8010    2.1590 hc        1 MOL     -0.025844
    165 H76         7.3640    3.9950   -0.0540 hc        1 MOL      0.014828
    166 H77         8.4340    5.0420    0.8390 hc        1 MOL      0.014828
    167 N15         9.9220    0.3420    2.6670 n         1 MOL     -0.326114
    168 C54        10.0470   -0.8120    3.6060 c3        1 MOL     -0.092804
    169 H78         9.2190   -1.5020    3.4440 h1        1 MOL      0.075951
    170 H79        10.9910   -1.3280    3.4260 h1        1 MOL      0.075951
    171 H80        10.0210   -0.4490    4.6330 h1        1 MOL      0.075951
    172 H81        10.5200    0.3460    1.8490 hn        1 MOL      0.239099
    173 Ca1         0.7220    3.5320   -0.2610 Ca        1 MOL      1.803872
    174 O23         1.5870    5.0580   -2.4710 oh        1 MOL     -0.857773
    175 H82         0.7980    5.5460   -2.7060 ho        1 MOL      0.423932
    176 H83         2.1280    5.1000   -3.2620 ho        1 MOL      0.423932
    177 O24         0.4910    6.0270    0.5450 oh        1 MOL     -0.857773
    178 H84         1.2140    6.6000    0.7900 ho        1 MOL      0.423932
    179 H85        -0.1870    6.6210    0.2250 ho        1 MOL      0.423932
    180 O25         3.4380    3.7470   -0.1620 oh        1 MOL     -0.857773
    181 H86         4.1550    4.3120    0.1390 ho        1 MOL      0.423932
    182 H87         3.7970    2.8600   -0.1130 ho        1 MOL      0.423932
    183 O26         1.5240    1.2260    0.8080 oh        1 MOL     -0.857773
    184 H88         2.4130    0.9630    1.0230 ho        1 MOL      0.423932
    185 H89         1.0490    0.4100    0.6780 ho        1 MOL      0.423932
    186 O27        -1.1900    4.8380   -1.5380 oh        1 MOL     -0.857773
    187 H90        -1.0390    5.5930   -2.1040 ho        1 MOL      0.423932
    188 H91        -2.1120    4.9160   -1.2730 ho        1 MOL      0.423932
    189 O28         0.6430    3.7300    2.5990 oh        1 MOL     -0.857773
    190 H92         0.1870    3.1010    3.1530 ho        1 MOL      0.423932
    191 H93         0.4120    4.5900    2.9530 ho        1 MOL      0.423932
@<TRIPOS>BOND
     1    1    2 1   
     2    1    4 1   
     3    1    5 1   
     4    1    6 1   
     5    2    3 2   
     6    2    7 1   
     7    7    8 1   
     8    7   15 1   
     9    8    9 1   
    10    8   11 1   
    11    8   16 1   
    12    9   10 2   
    13    9   19 1   
    14   11   12 1   
    15   11   17 1   
    16   11   18 1   
    17   12   13 1   
    18   12   14 1   
    19   19   20 1   
    20   19   28 1   
    21   20   21 1   
    22   20   23 1   
    23   20   29 1   
    24   21   22 2   
    25   21   41 1   
    26   23   24 1   
    27   23   30 1   
    28   23   31 1   
    29   24   25 1   
    30   24   32 1   
    31   24   33 1   
    32   25   26 1   
    33   25   34 1   
    34   25   35 1   
    35   26   27 1   
    36   26   36 1   
    37   26   37 1   
    38   27   38 1   
    39   27   39 1   
    40   27   40 1   
    41   41   42 1   
    42   41   49 1   
    43   42   43 1   
    44   42   45 1   
    45   42   50 1   
    46   43   44 2   
    47   43   53 1   
    48   45   46 1   
    49   45   51 1   
    50   45   52 1   
    51   46   47 1   
    52   46   48 1   
    53   53   54 1   
    54   53   57 1   
    55   54   55 1   
    56   54   58 1   
    57   54   59 1   
    58   55   56 2   
    59   55   60 1   
    60   60   61 1   
    61   60   68 1   
    62   61   62 1   
    63   61   64 1   
    64   61   69 1   
    65   62   63 2   
    66   62   74 1   
    67   64   65 1   
    68   64   70 1   
    69   64   71 1   
    70   65   66 1   
    71   65   67 2   
    72   66   72 1   
    73   66   73 1   
    74   74   75 1   
    75   74   78 1   
    76   75   76 1   
    77   75   79 1   
    78   75   80 1   
    79   76   77 2   
    80   76   81 1   
    81   81   82 1   
    82   81   93 1   
    83   82   83 1   
    84   82   85 1   
    85   82   94 1   
    86   83   84 2   
    87   83  102 1   
    88   85   86 1   
    89   85   95 1   
    90   85   96 1   
    91   86   87 ar  
    92   86   88 ar  
    93   87   89 ar  
    94   87   97 1   
    95   88   90 ar  
    96   88   98 1   
    97   89   91 ar  
    98   89   99 1   
    99   90   91 ar  
   100   90  100 1   
   101   91   92 1   
   102   92  101 1   
   103  102  103 1   
   104  102  110 1   
   105  103  104 1   
   106  103  106 1   
   107  103  111 1   
   108  104  105 2   
   109  104  121 1   
   110  106  107 1   
   111  106  108 1   
   112  106  112 1   
   113  107  109 1   
   114  107  113 1   
   115  107  114 1   
   116  108  115 1   
   117  108  116 1   
   118  108  117 1   
   119  109  118 1   
   120  109  119 1   
   121  109  120 1   
   122  121  122 1   
   123  121  127 1   
   124  122  123 1   
   125  122  125 1   
   126  122  128 1   
   127  123  124 2   
   128  123  132 1   
   129  125  126 1   
   130  125  129 1   
   131  125  130 1   
   132  126  131 1   
   133  132  133 1   
   134  132  137 1   
   135  133  134 1   
   136  133  136 1   
   137  133  138 1   
   138  134  135 2   
   139  134  142 1   
   140  136  139 1   
   141  136  140 1   
   142  136  141 1   
   143  142  143 1   
   144  142  147 1   
   145  143  144 1   
   146  143  146 1   
   147  143  148 1   
   148  144  145 2   
   149  144  152 1   
   150  146  149 1   
   151  146  150 1   
   152  146  151 1   
   153  152  153 1   
   154  152  161 1   
   155  153  154 1   
   156  153  156 1   
   157  153  162 1   
   158  154  155 2   
   159  154  167 1   
   160  156  157 1   
   161  156  163 1   
   162  156  164 1   
   163  157  158 1   
   164  157  165 1   
   165  157  166 1   
   166  158  159 1   
   167  158  160 1   
   168  167  168 1   
   169  167  172 1   
   170  168  169 1   
   171  168  170 1   
   172  168  171 1   
   173  174  175 1   
   174  174  176 1   
   175  177  178 1   
   176  177  179 1   
   177  180  181 1   
   178  180  182 1   
   179  183  184 1   
   180  183  185 1   
   181  186  187 1   
   182  186  188 1   
   183  189  190 1   
   184  189  191 1   
@<TRIPOS>SUBSTRUCTURE
     1 MOL         1 TEMP              0 ****  ****    0 ROOT
