@<TRIPOS>MOLECULE
MOL
  182   178     1     0     0
SMALL
resp


@<TRIPOS>ATOM
      1 C1          0.0870   -5.8260    5.2180 c3        1 MOL     -0.398127
      2 C2          0.2870   -5.1510    3.8300 c         1 MOL      0.695806
      3 O1         -0.5250   -5.3860    2.9550 o         1 MOL     -0.604132
      4 H1         -0.8450   -5.4730    5.6620 hc        1 MOL      0.112477
      5 H2          0.0420   -6.9070    5.0940 hc        1 MOL      0.112477
      6 H3          0.9200   -5.5680    5.8710 hc        1 MOL      0.112477
      7 N1          1.2970   -4.3050    3.6120 n         1 MOL     -0.511380
      8 C3          1.7230   -3.7540    2.2790 c3        1 MOL      0.002870
      9 C4          2.3680   -4.7420    1.2710 c         1 MOL      0.586401
     10 O2          3.4580   -5.3290    1.6370 o         1 MOL     -0.552461
     11 C5          2.6480   -2.4680    2.4650 c3        1 MOL     -0.129757
     12 C6          3.0720   -1.5680    1.3220 c         1 MOL      0.645919
     13 O3          3.3270   -0.3610    1.5360 o         1 MOL     -0.719932
     14 O4          3.1090   -2.0700    0.2360 o         1 MOL     -0.719932
     15 H4          1.8620   -4.1880    4.4350 hn        1 MOL      0.298908
     16 H5          0.7940   -3.4460    1.8190 h1        1 MOL      0.072558
     17 H6          3.5550   -2.7980    2.9810 hc        1 MOL      0.062359
     18 H7          2.0720   -1.9290    3.2110 hc        1 MOL      0.062359
     19 N2          1.7730   -4.9760    0.1310 n         1 MOL     -0.315546
     20 C7          2.2210   -5.9610   -0.8590 c3        1 MOL     -0.119795
     21 C8          3.6180   -5.6370   -1.4540 c         1 MOL      0.449677
     22 O5          4.1450   -6.4970   -2.1430 o         1 MOL     -0.524585
     23 C9          1.1970   -6.0270   -2.0370 c3        1 MOL     -0.060227
     24 C10         1.1720   -4.7020   -2.7930 c3        1 MOL      0.295703
     25 C11         0.1480   -4.7180   -3.8660 c3        1 MOL     -0.144105
     26 C12        -1.2820   -4.7230   -3.3550 c3        1 MOL      0.175354
     27 N3         -2.2140   -5.1900   -4.4190 n4        1 MOL     -0.303006
     28 H8          0.9810   -4.4270   -0.1770 hn        1 MOL      0.185193
     29 H9          2.2650   -6.9490   -0.4230 h1        1 MOL      0.136085
     30 H10         0.2190   -6.4740   -1.8500 hc        1 MOL      0.035306
     31 H11         1.6230   -6.7000   -2.7810 hc        1 MOL      0.035306
     32 H12         2.1790   -4.4370   -3.1180 hc        1 MOL     -0.043135
     33 H13         0.8620   -3.9050   -2.1260 hc        1 MOL     -0.043135
     34 H14         0.3130   -5.6550   -4.4020 hc        1 MOL      0.030031
     35 H15         0.2670   -3.8590   -4.5310 hc        1 MOL      0.030031
     36 H16        -1.5100   -3.6830   -3.0930 hx        1 MOL      0.021345
     37 H17        -1.3860   -5.3060   -2.4410 hx        1 MOL      0.021345
     38 H18        -2.0730   -6.1510   -4.6680 hn        1 MOL      0.271332
     39 H19        -3.1350   -4.9850   -4.0530 hn        1 MOL      0.271332
     40 H20        -2.0330   -4.7130   -5.2960 hn        1 MOL      0.271332
     41 N4          4.0460   -4.3510   -1.3920 n         1 MOL     -0.119229
     42 C13         5.3750   -3.9990   -1.9150 c3        1 MOL     -0.006318
     43 C14         6.3990   -3.4910   -0.8100 c         1 MOL      0.425535
     44 O6          7.5610   -3.2450   -1.1790 o         1 MOL     -0.549203
     45 C15         5.1370   -2.8900   -3.0390 c3        1 MOL     -0.291686
     46 C16         4.3210   -1.6400   -2.5940 c         1 MOL      0.857762
     47 O7          4.8360   -0.9210   -1.7660 o         1 MOL     -0.796013
     48 O8          3.2090   -1.3290   -3.0740 o         1 MOL     -0.796013
     49 H21         3.6290   -3.7160   -0.7200 hn        1 MOL      0.053902
     50 H22         5.9100   -4.8190   -2.4220 h1        1 MOL      0.131396
     51 H23         4.5940   -3.4030   -3.8340 hc        1 MOL      0.080890
     52 H24         6.0870   -2.4940   -3.4050 hc        1 MOL      0.080890
     53 N5          5.9640   -3.2730    0.4260 n         1 MOL     -0.253993
     54 C17         6.8170   -2.6510    1.4100 c3        1 MOL     -0.054786
     55 C18         7.1960   -1.2170    1.3280 c         1 MOL      0.489871
     56 O9          8.0070   -0.8540    2.1820 o         1 MOL     -0.522216
     57 H25         4.9930   -3.3630    0.6790 hn        1 MOL      0.224446
     58 H26         7.7140   -3.2400    1.5840 h1        1 MOL      0.079684
     59 H27         6.2430   -2.8060    2.3240 h1        1 MOL      0.079684
     60 N6          6.7580   -0.5040    0.2850 n         1 MOL     -0.421941
     61 C19         7.2690    0.8510    0.1730 c3        1 MOL      0.186165
     62 C20         6.1880    1.9370   -0.1680 c         1 MOL      0.443752
     63 O10         5.0600    1.5070   -0.2210 o         1 MOL     -0.466106
     64 C21         8.3020    0.8420   -0.8610 c3        1 MOL     -0.159256
     65 C22         9.5460    0.0060   -0.5380 c         1 MOL      0.488888
     66 N7          9.5080   -1.2670   -0.5520 n         1 MOL     -0.599050
     67 O11        10.6520    0.5000   -0.1650 o         1 MOL     -0.569400
     68 H28         6.0530   -0.7950   -0.3850 hn        1 MOL      0.443744
     69 H29         7.7350    1.1790    1.1010 h1        1 MOL      0.037446
     70 H30         8.5680    1.8850   -1.0340 hc        1 MOL      0.024923
     71 H31         7.7840    0.4080   -1.7110 hc        1 MOL      0.024923
     72 H32         8.7380   -1.7910   -0.9600 hn        1 MOL      0.329878
     73 H33        10.3530   -1.7610   -0.3220 hn        1 MOL      0.329878
     74 N8          6.4960    3.1920   -0.2740 n         1 MOL     -0.415134
     75 C23         5.6540    4.3010   -0.8200 c3        1 MOL     -0.170923
     76 C24         4.5590    4.6520    0.2260 c         1 MOL      0.641974
     77 O12         4.8130    4.6710    1.4200 o         1 MOL     -0.505599
     78 H34         7.4780    3.3990   -0.1540 hn        1 MOL      0.330150
     79 H35         5.2570    4.0750   -1.8080 h1        1 MOL      0.115368
     80 H36         6.2400    5.2220   -0.9480 h1        1 MOL      0.115368
     81 N9          3.3630    4.9890   -0.2920 n         1 MOL     -0.561433
     82 C25         2.1440    5.0640    0.4480 c3        1 MOL      0.107245
     83 C26         1.7370    3.6190    0.9320 c         1 MOL      0.552867
     84 O13         2.3450    2.6050    0.5860 o         1 MOL     -0.502497
     85 C27         1.0490    5.6570   -0.4260 c3        1 MOL      0.039566
     86 C28         1.3050    7.1260   -0.7920 ca        1 MOL     -0.087392
     87 C29         1.2490    8.0710    0.3190 ca        1 MOL     -0.080650
     88 C30         1.7400    7.5960   -2.0590 ca        1 MOL     -0.080650
     89 C31         1.6280    9.4320    0.0790 ca        1 MOL     -0.294032
     90 C32         1.9300    8.9400   -2.2680 ca        1 MOL     -0.294032
     91 C33         1.9200    9.8600   -1.2360 ca        1 MOL      0.372038
     92 O14         2.0440   11.1440   -1.5300 oh        1 MOL     -0.436366
     93 H37         3.3640    4.9820   -1.3050 hn        1 MOL      0.239041
     94 H38         2.4010    5.7650    1.2420 h1        1 MOL      0.104583
     95 H39         0.0810    5.6960    0.0600 hc        1 MOL      0.019375
     96 H40         0.8340    5.0720   -1.3220 hc        1 MOL      0.019375
     97 H41         0.9210    7.7310    1.2850 ha        1 MOL      0.106358
     98 H42         1.8340    6.9310   -2.9040 ha        1 MOL      0.106358
     99 H43         1.5110   10.1270    0.9060 ha        1 MOL      0.163840
    100 H44         2.0810    9.3180   -3.2720 ha        1 MOL      0.163840
    101 H45         2.2190   11.2140   -2.4740 ho        1 MOL      0.337287
    102 N10         0.7200    3.5370    1.8340 n         1 MOL     -0.630488
    103 C34         0.0450    2.3450    2.4070 c3        1 MOL      0.167672
    104 C35        -0.3750    1.3400    1.3260 c         1 MOL      0.363842
    105 O15         0.4470    0.6750    0.6410 o         1 MOL     -0.395811
    106 C36         0.7700    1.6890    3.5580 c3        1 MOL      0.056325
    107 C37         0.2060    0.3520    4.0210 c3        1 MOL      0.158293
    108 C38         0.8840    2.5870    4.8220 c3        1 MOL     -0.210869
    109 C39         0.6570   -0.2600    5.3960 c3        1 MOL     -0.114118
    110 H46         0.4040    4.3960    2.2350 hn        1 MOL      0.311728
    111 H47        -0.9260    2.6990    2.7460 h1        1 MOL      0.045390
    112 H48         1.7860    1.4870    3.2250 hc        1 MOL      0.109534
    113 H49         0.5780   -0.3790    3.3120 hc        1 MOL     -0.059908
    114 H50        -0.8800    0.3850    4.0040 hc        1 MOL     -0.059908
    115 H51         1.6510    2.2050    5.4910 hc        1 MOL      0.050669
    116 H52         1.1440    3.6160    4.5620 hc        1 MOL      0.050669
    117 H53        -0.0520    2.6050    5.3610 hc        1 MOL      0.050669
    118 H54         0.1300    0.2060    6.2210 hc        1 MOL      0.027090
    119 H55         0.4260   -1.3250    5.4540 hc        1 MOL      0.027090
    120 H56         1.7390   -0.1240    5.4860 hc        1 MOL      0.027090
    121 N11        -1.6650    1.1160    1.2080 n         1 MOL     -0.268139
    122 C40        -2.2990    0.0570    0.4550 c3        1 MOL     -0.158494
    123 C41        -3.7050    0.4470   -0.0070 c         1 MOL      0.703553
    124 O16        -4.1360   -0.1180   -1.0180 o         1 MOL     -0.541733
    125 C42        -2.2840   -1.2350    1.1970 c3        1 MOL      0.094411
    126 O17        -1.0480   -1.8740    0.9790 oh        1 MOL     -0.554148
    127 H57        -2.3480    1.5910    1.7910 hn        1 MOL      0.161984
    128 H58        -1.7460   -0.0010   -0.4770 h1        1 MOL      0.066151
    129 H59        -3.1410   -1.8670    0.9290 h1        1 MOL      0.064887
    130 H60        -2.3960   -1.0070    2.2570 h1        1 MOL      0.064887
    131 H61        -1.2470   -2.8140    0.9850 ho        1 MOL      0.404178
    132 N12        -4.5190    1.1440    0.8380 n         1 MOL     -0.689901
    133 C43        -5.9440    1.2710    0.7380 c3        1 MOL      0.196502
    134 C44        -6.4420    2.0930   -0.4620 c         1 MOL      0.626271
    135 O18        -5.8400    3.0800   -0.8810 o         1 MOL     -0.565848
    136 C45        -6.5550    1.8990    2.0110 c3        1 MOL     -0.313916
    137 H62        -4.0880    1.4480    1.7010 hn        1 MOL      0.392519
    138 H63        -6.3380    0.2680    0.6150 h1        1 MOL      0.076396
    139 H64        -7.5610    1.5440    2.2520 hc        1 MOL      0.092318
    140 H65        -5.9910    1.7410    2.9280 hc        1 MOL      0.092318
    141 H66        -6.5680    2.9850    1.9230 hc        1 MOL      0.092318
    142 N13        -7.4880    1.6750   -1.1950 n         1 MOL     -0.634529
    143 C46        -8.2310    0.3760   -1.0350 c3        1 MOL      0.411162
    144 C47        -9.6440    0.5230   -1.5840 c         1 MOL      0.306565
    145 O19        -9.8280    1.2410   -2.5320 o         1 MOL     -0.513845
    146 C48        -7.6100   -0.8160   -1.7660 c3        1 MOL     -0.246495
    147 H67        -7.6600    2.1410   -2.0750 hn        1 MOL      0.347534
    148 H68        -8.3590    0.1630    0.0300 h1        1 MOL     -0.099072
    149 H69        -6.5970   -1.0380   -1.4470 hc        1 MOL      0.063001
    150 H70        -8.1910   -1.7210   -1.6150 hc        1 MOL      0.063001
    151 H71        -7.4950   -0.5250   -2.8140 hc        1 MOL      0.063001
    152 N14       -10.6610   -0.1260   -1.0310 n         1 MOL     -0.113110
    153 C49       -10.6240   -1.0660    0.1420 c3        1 MOL     -0.381004
    154 C50       -10.8580   -0.2850    1.4250 c         1 MOL      0.708867
    155 O20       -10.5710   -0.8650    2.4810 o         1 MOL     -0.577085
    156 C51       -11.5490   -2.2400   -0.1080 c3        1 MOL      0.008061
    157 C52       -12.9980   -1.8580   -0.0780 c3        1 MOL     -0.134966
    158 C53       -13.5990   -1.3560   -1.3980 c         1 MOL      0.656603
    159 O21       -14.1000   -2.2170   -2.2330 o         1 MOL     -0.641259
    160 O22       -13.5640   -0.1090   -1.7020 o         1 MOL     -0.641259
    161 H72       -11.5280    0.0180   -1.5330 hn        1 MOL      0.201865
    162 H73        -9.6370   -1.5240    0.1780 h1        1 MOL      0.144236
    163 H74       -11.3290   -2.8870    0.7360 hc        1 MOL      0.051290
    164 H75       -11.2490   -2.8410   -0.9680 hc        1 MOL      0.051290
    165 H76       -13.2220   -1.0520    0.6180 hc        1 MOL      0.024330
    166 H77       -13.5950   -2.6870    0.3210 hc        1 MOL      0.024330
    167 N15       -11.2880    0.9940    1.4710 n         1 MOL     -0.372996
    168 C54       -11.1110    1.8800    2.5980 c3        1 MOL     -0.092048
    169 H78       -11.2530    1.3230    3.5240 h1        1 MOL      0.074435
    170 H79       -10.1040    2.2980    2.5780 h1        1 MOL      0.074435
    171 H80       -11.8410    2.6880    2.5440 h1        1 MOL      0.074435
    172 H81       -11.5360    1.4470    0.5970 hn        1 MOL      0.251213
    173 Ca1         2.6380    0.3580   -0.9960 Ca        1 MOL      1.781516
    174 O23         0.3590   -1.1300   -1.5960 oh        1 MOL     -0.834562
    175 H82        -0.3000   -1.3680   -2.2500 ho        1 MOL      0.406602
    176 H83        -0.0800   -1.2730   -0.7520 ho        1 MOL      0.406602
    177 O24         0.5670    2.0740   -2.0280 oh        1 MOL     -0.834562
    178 H84        -0.1610    2.6690   -1.8500 ho        1 MOL      0.406602
    179 H85         0.2990    1.5800   -2.7940 ho        1 MOL      0.406602
    180 O25         3.3430    2.0600   -2.9190 oh        1 MOL     -0.834562
    181 H86         3.4110    2.9950   -3.1170 ho        1 MOL      0.406602
    182 H87         2.7560    1.7180   -3.5920 ho        1 MOL      0.406602
@<TRIPOS>BOND
     1    1    2 1   
     2    1    4 1   
     3    1    5 1   
     4    1    6 1   
     5    2    3 2   
     6    2    7 1   
     7    7    8 1   
     8    7   15 1   
     9    8    9 1   
    10    8   11 1   
    11    8   16 1   
    12    9   10 2   
    13    9   19 1   
    14   11   12 1   
    15   11   17 1   
    16   11   18 1   
    17   12   13 1   
    18   12   14 1   
    19   19   20 1   
    20   19   28 1   
    21   20   21 1   
    22   20   23 1   
    23   20   29 1   
    24   21   22 2   
    25   21   41 1   
    26   23   24 1   
    27   23   30 1   
    28   23   31 1   
    29   24   25 1   
    30   24   32 1   
    31   24   33 1   
    32   25   26 1   
    33   25   34 1   
    34   25   35 1   
    35   26   27 1   
    36   26   36 1   
    37   26   37 1   
    38   27   38 1   
    39   27   39 1   
    40   27   40 1   
    41   41   42 1   
    42   41   49 1   
    43   42   43 1   
    44   42   45 1   
    45   42   50 1   
    46   43   44 2   
    47   43   53 1   
    48   45   46 1   
    49   45   51 1   
    50   45   52 1   
    51   46   47 1   
    52   46   48 1   
    53   53   54 1   
    54   53   57 1   
    55   54   55 1   
    56   54   58 1   
    57   54   59 1   
    58   55   56 2   
    59   55   60 1   
    60   60   61 1   
    61   60   68 1   
    62   61   62 1   
    63   61   64 1   
    64   61   69 1   
    65   62   63 2   
    66   62   74 1   
    67   64   65 1   
    68   64   70 1   
    69   64   71 1   
    70   65   66 1   
    71   65   67 2   
    72   66   72 1   
    73   66   73 1   
    74   74   75 1   
    75   74   78 1   
    76   75   76 1   
    77   75   79 1   
    78   75   80 1   
    79   76   77 2   
    80   76   81 1   
    81   81   82 1   
    82   81   93 1   
    83   82   83 1   
    84   82   85 1   
    85   82   94 1   
    86   83   84 2   
    87   83  102 1   
    88   85   86 1   
    89   85   95 1   
    90   85   96 1   
    91   86   87 ar  
    92   86   88 ar  
    93   87   89 ar  
    94   87   97 1   
    95   88   90 ar  
    96   88   98 1   
    97   89   91 ar  
    98   89   99 1   
    99   90   91 ar  
   100   90  100 1   
   101   91   92 1   
   102   92  101 1   
   103  102  103 1   
   104  102  110 1   
   105  103  104 1   
   106  103  106 1   
   107  103  111 1   
   108  104  105 2   
   109  104  121 1   
   110  106  107 1   
   111  106  108 1   
   112  106  112 1   
   113  107  109 1   
   114  107  113 1   
   115  107  114 1   
   116  108  115 1   
   117  108  116 1   
   118  108  117 1   
   119  109  118 1   
   120  109  119 1   
   121  109  120 1   
   122  121  122 1   
   123  121  127 1   
   124  122  123 1   
   125  122  125 1   
   126  122  128 1   
   127  123  124 2   
   128  123  132 1   
   129  125  126 1   
   130  125  129 1   
   131  125  130 1   
   132  126  131 1   
   133  132  133 1   
   134  132  137 1   
   135  133  134 1   
   136  133  136 1   
   137  133  138 1   
   138  134  135 2   
   139  134  142 1   
   140  136  139 1   
   141  136  140 1   
   142  136  141 1   
   143  142  143 1   
   144  142  147 1   
   145  143  144 1   
   146  143  146 1   
   147  143  148 1   
   148  144  145 2   
   149  144  152 1   
   150  146  149 1   
   151  146  150 1   
   152  146  151 1   
   153  152  153 1   
   154  152  161 1   
   155  153  154 1   
   156  153  156 1   
   157  153  162 1   
   158  154  155 2   
   159  154  167 1   
   160  156  157 1   
   161  156  163 1   
   162  156  164 1   
   163  157  158 1   
   164  157  165 1   
   165  157  166 1   
   166  158  159 1   
   167  158  160 1   
   168  167  168 1   
   169  167  172 1   
   170  168  169 1   
   171  168  170 1   
   172  168  171 1   
   173  174  175 1   
   174  174  176 1   
   175  177  178 1   
   176  177  179 1   
   177  180  181 1   
   178  180  182 1   
@<TRIPOS>SUBSTRUCTURE
     1 MOL         1 TEMP              0 ****  ****    0 ROOT
