@<TRIPOS>MOLECULE
MOL
  175   173     1     0     0
SMALL
resp


@<TRIPOS>ATOM
      1 C1         -7.1710    7.5530    1.9800 c3        1 MOL     -0.336287
      2 C2         -7.9650    6.7630    0.7970 c         1 MOL      0.599605
      3 O1         -7.8130    7.1310   -0.3650 o         1 MOL     -0.572090
      4 H1         -6.8580    8.5320    1.6150 hc        1 MOL      0.079610
      5 H2         -7.8300    7.6800    2.8390 hc        1 MOL      0.079610
      6 H3         -6.2930    6.9790    2.2760 hc        1 MOL      0.079610
      7 N1         -8.7860    5.7710    1.0910 n         1 MOL     -0.365402
      8 C3         -9.6670    5.0010    0.2520 c3        1 MOL      0.116741
      9 C4         -9.0600    3.7060   -0.2420 c         1 MOL      0.495115
     10 O2         -9.6700    3.0030   -1.0020 o         1 MOL     -0.458532
     11 C5        -11.0270    4.9700    0.9460 c3        1 MOL     -0.210005
     12 C6        -12.0540    4.4080   -0.0130 c         1 MOL      0.673119
     13 O3        -12.4000    3.1920    0.1210 o         1 MOL     -0.716358
     14 O4        -12.5720    5.1610   -0.9070 o         1 MOL     -0.716358
     15 H4         -8.8520    5.4620    2.0500 hn        1 MOL      0.229519
     16 H5         -9.8980    5.5970   -0.6280 h1        1 MOL      0.077452
     17 H6        -11.2020    5.9650    1.3600 hc        1 MOL      0.010009
     18 H7        -11.0290    4.3390    1.8400 hc        1 MOL      0.010009
     19 N2         -7.7640    3.5340    0.0140 n         1 MOL     -0.483009
     20 C7         -6.8840    2.6270   -0.7720 c3        1 MOL      0.264453
     21 C8         -5.6070    2.1360   -0.0400 c         1 MOL      0.331699
     22 O5         -5.0900    2.8430    0.8310 o         1 MOL     -0.520929
     23 C9         -6.4610    3.4330   -2.0500 c3        1 MOL     -0.168767
     24 H8         -7.3480    4.0780    0.7620 hn        1 MOL      0.224543
     25 H9         -7.3990    1.7590   -1.1770 h1        1 MOL     -0.044772
     26 H10        -5.7320    2.9340   -2.6930 hc        1 MOL      0.059875
     27 H11        -7.2960    3.7950   -2.6570 hc        1 MOL      0.059875
     28 H12        -5.9550    4.3740   -1.8590 hc        1 MOL      0.059875
     29 N3         -4.9590    1.0290   -0.3670 n         1 MOL     -0.158220
     30 C10        -5.3190   -0.0760   -1.2810 c3        1 MOL     -0.114633
     31 C11        -5.3950   -1.4020   -0.5680 c         1 MOL      0.452952
     32 O6         -4.5770   -1.8340    0.2780 o         1 MOL     -0.501255
     33 C12        -4.2920   -0.1980   -2.4210 c3        1 MOL     -0.301633
     34 C13        -2.8030   -0.5030   -1.9200 c         1 MOL      0.793725
     35 O7         -2.3190    0.3010   -1.1020 o         1 MOL     -0.711171
     36 O8         -2.1050   -1.4090   -2.3990 o         1 MOL     -0.711171
     37 H13        -4.2490    0.7700    0.3090 hn        1 MOL      0.247755
     38 H14        -6.2920    0.0440   -1.7710 h1        1 MOL      0.135410
     39 H15        -4.2540    0.7460   -2.9530 hc        1 MOL      0.062937
     40 H16        -4.5920   -1.0570   -3.0370 hc        1 MOL      0.062937
     41 N4         -6.4090   -2.1600   -1.0980 n         1 MOL     -0.405492
     42 C14        -6.8000   -3.5170   -0.5770 c3        1 MOL      0.038798
     43 C15        -6.5780   -4.6500   -1.6460 c         1 MOL      0.509360
     44 O9         -7.5440   -5.1580   -2.2040 o         1 MOL     -0.532771
     45 H17        -6.9890   -1.8330   -1.8510 hn        1 MOL      0.315569
     46 H18        -7.8690   -3.4490   -0.3730 h1        1 MOL      0.061099
     47 H19        -6.2810   -3.7860    0.3370 h1        1 MOL      0.061099
     48 N5         -5.3180   -5.1230   -1.9060 n         1 MOL     -0.481911
     49 C16        -4.0900   -4.8270   -1.2110 c3        1 MOL     -0.022151
     50 C17        -3.9640   -5.6010    0.0790 c         1 MOL      0.642810
     51 O10        -4.4380   -6.7330    0.2450 o         1 MOL     -0.569213
     52 C18        -2.9490   -5.1170   -2.2440 c3        1 MOL     -0.305344
     53 C19        -1.6420   -4.5720   -1.7330 c         1 MOL      0.431554
     54 N6         -0.5920   -4.9500   -2.3830 n         1 MOL     -0.617823
     55 O11        -1.4940   -3.8840   -0.7340 o         1 MOL     -0.368120
     56 H20        -5.1580   -5.9020   -2.5280 hn        1 MOL      0.310505
     57 H21        -3.9940   -3.7590   -0.9950 h1        1 MOL      0.172085
     58 H22        -3.1060   -4.8660   -3.2890 hc        1 MOL      0.119121
     59 H23        -2.7650   -6.1900   -2.2060 hc        1 MOL      0.119121
     60 H24        -0.6670   -5.7380   -3.0060 hn        1 MOL      0.329820
     61 H25         0.3380   -4.6440   -2.1240 hn        1 MOL      0.329820
     62 N7         -3.3640   -4.8990    1.1050 n         1 MOL     -0.337244
     63 C20        -3.0330   -5.3340    2.4480 c3        1 MOL     -0.072067
     64 C21        -1.5730   -5.5120    2.8180 c         1 MOL      0.479517
     65 O12        -1.3390   -6.1420    3.8880 o         1 MOL     -0.566675
     66 H26        -2.9300   -4.0430    0.7980 hn        1 MOL      0.161005
     67 H27        -3.4990   -6.2700    2.7620 h1        1 MOL      0.082642
     68 H28        -3.4080   -4.5980    3.1630 h1        1 MOL      0.082642
     69 N8         -0.5830   -5.0280    2.0190 n         1 MOL     -0.101784
     70 C22         0.8770   -5.0760    2.2150 c3        1 MOL     -0.085801
     71 C23         1.4870   -3.7210    1.9040 c         1 MOL      0.255325
     72 O13         0.9140   -2.8870    1.1760 o         1 MOL     -0.487807
     73 C24         1.6200   -6.1520    1.4630 c3        1 MOL      0.425757
     74 C25         1.2140   -7.5610    1.8920 c3        1 MOL     -0.393671
     75 O14         1.3360   -6.1030    0.1100 oh        1 MOL     -0.632180
     76 H29        -0.7790   -4.6200    1.1150 hn        1 MOL      0.089303
     77 H30         1.1060   -5.1690    3.2760 h1        1 MOL      0.043141
     78 H31         2.7140   -6.1060    1.5530 h1        1 MOL     -0.013078
     79 H32         1.9980   -5.5050   -0.2420 ho        1 MOL      0.478405
     80 H33         1.6720   -8.1590    1.1030 hc        1 MOL      0.093447
     81 H34         1.7140   -7.8500    2.8220 hc        1 MOL      0.093447
     82 H35         0.1340   -7.5810    2.0420 hc        1 MOL      0.093447
     83 N9          2.6650   -3.4550    2.4780 n         1 MOL     -0.086335
     84 C26         3.6030   -2.3640    2.1230 c3        1 MOL      0.016225
     85 C27         4.4320   -2.7710    0.9420 c         1 MOL      0.114678
     86 O15         5.2930   -3.6230    0.9960 o         1 MOL     -0.501241
     87 C28         4.4520   -1.8570    3.3470 c3        1 MOL      0.213693
     88 C29         5.1680   -0.5000    3.0950 c3        1 MOL      0.385480
     89 C30         3.5470   -1.8800    4.6100 c3        1 MOL     -0.374721
     90 C31         6.3420   -0.2530    4.0810 c3        1 MOL     -0.342928
     91 H36         3.0450   -4.2440    2.9860 hn        1 MOL      0.189273
     92 H37         2.9830   -1.5230    1.8170 h1        1 MOL      0.022476
     93 H38         5.2160   -2.5990    3.5880 hc        1 MOL     -0.028065
     94 H39         4.4560    0.3280    3.1400 hc        1 MOL     -0.109390
     95 H40         5.5720   -0.5350    2.0840 hc        1 MOL     -0.109390
     96 H41         3.3490   -2.8900    4.9770 hc        1 MOL      0.077100
     97 H42         3.9830   -1.2960    5.4200 hc        1 MOL      0.077100
     98 H43         2.5780   -1.4290    4.3900 hc        1 MOL      0.077100
     99 H44         6.7070    0.6860    3.6540 hc        1 MOL      0.066155
    100 H45         5.8480   -0.2150    5.0600 hc        1 MOL      0.066155
    101 H46         7.1570   -0.9630    4.0550 hc        1 MOL      0.066155
    102 N10         4.1380   -2.0900   -0.1810 n         1 MOL      0.087698
    103 C32         4.7870   -2.2220   -1.5000 c3        1 MOL      0.161222
    104 C33         5.6680   -1.0480   -1.9340 c         1 MOL      0.513021
    105 O16         5.9840   -0.9330   -3.1330 o         1 MOL     -0.539849
    106 C34         3.6930   -2.5480   -2.5630 c3        1 MOL     -0.222764
    107 C35         2.5480   -3.5190   -2.0510 c         1 MOL      0.840263
    108 O17         2.7290   -4.7210   -1.7460 o         1 MOL     -0.754372
    109 O18         1.4010   -2.9890   -2.0590 o         1 MOL     -0.754372
    110 H47         3.4250   -1.3710   -0.1890 hn        1 MOL     -0.034621
    111 H48         5.4680   -3.0660   -1.4560 h1        1 MOL      0.024796
    112 H49         4.2210   -2.9650   -3.4110 hc        1 MOL      0.032365
    113 H50         3.2650   -1.6280   -2.9550 hc        1 MOL      0.032365
    114 N11         6.0460   -0.0890   -1.0480 n         1 MOL     -0.529067
    115 C36         6.8690    1.0400   -1.3350 c3        1 MOL      0.372349
    116 C37         6.4970    2.2800   -0.5220 c         1 MOL      0.381513
    117 O19         6.4000    2.1440    0.7170 o         1 MOL     -0.523508
    118 C38         8.3340    0.6220   -1.0770 c3        1 MOL     -0.481983
    119 C39         9.3850    1.6720   -1.5100 ca        1 MOL      0.233159
    120 C40        10.1530    2.4680   -0.5900 ca        1 MOL     -0.214279
    121 C41         9.4860    1.8980   -2.9070 ca        1 MOL     -0.214279
    122 C42        11.1270    3.3820   -1.1240 ca        1 MOL     -0.073944
    123 C43        10.3410    2.8460   -3.3510 ca        1 MOL     -0.073944
    124 C44        11.2660    3.4560   -2.5000 ca        1 MOL     -0.155237
    125 H51         5.7700   -0.1520   -0.0760 hn        1 MOL      0.273561
    126 H52         6.7420    1.2340   -2.3940 h1        1 MOL      0.000517
    127 H53         8.4960   -0.2740   -1.6690 hc        1 MOL      0.161928
    128 H54         8.4320    0.4720   -0.0010 hc        1 MOL      0.161928
    129 H55         9.9750    2.3690    0.4680 ha        1 MOL      0.134844
    130 H56         8.7620    1.5500   -3.6420 ha        1 MOL      0.134844
    131 H57        11.7320    3.9700   -0.4470 ha        1 MOL      0.101236
    132 H58        10.3980    3.0820   -4.4080 ha        1 MOL      0.101236
    133 H59        11.9490    4.1650   -2.9340 ha        1 MOL      0.103029
    134 N12         6.3650    3.5480   -0.9760 n         1 MOL     -0.122704
    135 C45         6.3600    4.7920   -0.2470 c3        1 MOL      0.026520
    136 C46         5.0490    5.1630    0.4240 c         1 MOL      0.576183
    137 O20         5.0640    6.2160    1.0710 o         1 MOL     -0.570843
    138 C47         6.8400    5.8240   -1.2640 c3        1 MOL     -0.048479
    139 C48         6.5000    5.2360   -2.6260 c3        1 MOL     -0.046979
    140 C49         6.5690    3.7400   -2.3600 c3        1 MOL     -0.151373
    141 H60         7.0790    4.8510    0.5680 h1        1 MOL      0.054400
    142 H61         6.3350    6.7570   -1.0060 hc        1 MOL      0.041139
    143 H62         7.9080    5.9630   -1.1160 hc        1 MOL      0.041139
    144 H63         5.4650    5.4620   -2.8810 hc        1 MOL      0.036130
    145 H64         7.1950    5.5390   -3.4010 hc        1 MOL      0.036130
    146 H65         5.8730    3.2010   -3.0040 h1        1 MOL      0.084748
    147 H66         7.5700    3.3970   -2.6430 h1        1 MOL      0.084748
    148 N13         4.0200    4.3000    0.3630 n         1 MOL     -0.354010
    149 C50         2.6900    4.5440    1.0070 c3        1 MOL     -0.205372
    150 C51         2.7040    4.7860    2.5880 c         1 MOL      0.502524
    151 O21         1.7720    5.2500    3.1890 o         1 MOL     -0.499547
    152 C52         1.7260    3.4130    0.6780 c3        1 MOL     -0.150494
    153 C53         2.1540    2.0330    1.2910 c3        1 MOL     -0.101353
    154 C54         1.4880    0.8230    0.7460 c         1 MOL      0.748082
    155 O22         2.0850   -0.1130    0.0800 o         1 MOL     -0.703067
    156 O23         0.2920    0.6710    0.9310 o         1 MOL     -0.703067
    157 H67         4.1690    3.4090   -0.1060 hn        1 MOL      0.231110
    158 H68         2.2290    5.4400    0.5720 h1        1 MOL      0.144144
    159 H69         1.5610    3.2160   -0.3820 hc        1 MOL      0.112348
    160 H70         0.7490    3.6380    1.1100 hc        1 MOL      0.112348
    161 H71         2.0980    1.9960    2.3750 hc        1 MOL      0.035724
    162 H72         3.1900    1.7900    1.0380 hc        1 MOL      0.035724
    163 N14         3.8370    4.4770    3.2640 n         1 MOL     -0.116011
    164 C55         3.9800    4.7370    4.6830 c3        1 MOL     -0.211010
    165 H73         3.8140    5.7970    4.8760 h1        1 MOL      0.086991
    166 H74         3.2480    4.1490    5.2370 h1        1 MOL      0.086991
    167 H75         4.9850    4.4630    5.0040 h1        1 MOL      0.086991
    168 H76         4.5730    4.0210    2.7550 hn        1 MOL      0.177842
    169 Ca1        -0.1360   -1.4260   -0.6240 Ca        1 MOL      1.620652
    170 O24        -2.0670   -1.7750    1.0990 oh        1 MOL     -0.793753
    171 H77        -2.9760   -1.8930    0.7960 ho        1 MOL      0.392119
    172 H78        -2.1450   -1.2300    1.8840 ho        1 MOL      0.392119
    173 O25         0.1330    0.3130   -2.5520 oh        1 MOL     -0.793753
    174 H79        -0.0630   -0.0610   -3.4060 ho        1 MOL      0.392119
    175 H80         0.6130    1.1200   -2.7350 ho        1 MOL      0.392119
@<TRIPOS>BOND
     1    1    2 1   
     2    1    4 1   
     3    1    5 1   
     4    1    6 1   
     5    2    3 2   
     6    2    7 1   
     7    7    8 1   
     8    7   15 1   
     9    8    9 1   
    10    8   11 1   
    11    8   16 1   
    12    9   10 2   
    13    9   19 1   
    14   11   12 1   
    15   11   17 1   
    16   11   18 1   
    17   12   13 1   
    18   12   14 1   
    19   19   20 1   
    20   19   24 1   
    21   20   21 1   
    22   20   23 1   
    23   20   25 1   
    24   21   22 2   
    25   21   29 1   
    26   23   26 1   
    27   23   27 1   
    28   23   28 1   
    29   29   30 1   
    30   29   37 1   
    31   30   31 1   
    32   30   33 1   
    33   30   38 1   
    34   31   32 2   
    35   31   41 1   
    36   33   34 1   
    37   33   39 1   
    38   33   40 1   
    39   34   35 1   
    40   34   36 1   
    41   41   42 1   
    42   41   45 1   
    43   42   43 1   
    44   42   46 1   
    45   42   47 1   
    46   43   44 2   
    47   43   48 1   
    48   48   49 1   
    49   48   56 1   
    50   49   50 1   
    51   49   52 1   
    52   49   57 1   
    53   50   51 2   
    54   50   62 1   
    55   52   53 1   
    56   52   58 1   
    57   52   59 1   
    58   53   54 1   
    59   53   55 2   
    60   54   60 1   
    61   54   61 1   
    62   62   63 1   
    63   62   66 1   
    64   63   64 1   
    65   63   67 1   
    66   63   68 1   
    67   64   65 2   
    68   64   69 1   
    69   69   70 1   
    70   69   76 1   
    71   70   71 1   
    72   70   73 1   
    73   70   77 1   
    74   71   72 2   
    75   71   83 1   
    76   73   74 1   
    77   73   75 1   
    78   73   78 1   
    79   74   80 1   
    80   74   81 1   
    81   74   82 1   
    82   75   79 1   
    83   83   84 1   
    84   83   91 1   
    85   84   85 1   
    86   84   87 1   
    87   84   92 1   
    88   85   86 2   
    89   85  102 1   
    90   87   88 1   
    91   87   89 1   
    92   87   93 1   
    93   88   90 1   
    94   88   94 1   
    95   88   95 1   
    96   89   96 1   
    97   89   97 1   
    98   89   98 1   
    99   90   99 1   
   100   90  100 1   
   101   90  101 1   
   102  102  103 1   
   103  102  110 1   
   104  103  104 1   
   105  103  106 1   
   106  103  111 1   
   107  104  105 2   
   108  104  114 1   
   109  106  107 1   
   110  106  112 1   
   111  106  113 1   
   112  107  108 1   
   113  107  109 1   
   114  114  115 1   
   115  114  125 1   
   116  115  116 1   
   117  115  118 1   
   118  115  126 1   
   119  116  117 2   
   120  116  134 1   
   121  118  119 1   
   122  118  127 1   
   123  118  128 1   
   124  119  120 ar  
   125  119  121 ar  
   126  120  122 ar  
   127  120  129 1   
   128  121  123 ar  
   129  121  130 1   
   130  122  124 ar  
   131  122  131 1   
   132  123  124 ar  
   133  123  132 1   
   134  124  133 1   
   135  134  135 1   
   136  134  140 1   
   137  135  136 1   
   138  135  138 1   
   139  135  141 1   
   140  136  137 2   
   141  136  148 1   
   142  138  139 1   
   143  138  142 1   
   144  138  143 1   
   145  139  140 1   
   146  139  144 1   
   147  139  145 1   
   148  140  146 1   
   149  140  147 1   
   150  148  149 1   
   151  148  157 1   
   152  149  150 1   
   153  149  152 1   
   154  149  158 1   
   155  150  151 2   
   156  150  163 1   
   157  152  153 1   
   158  152  159 1   
   159  152  160 1   
   160  153  154 1   
   161  153  161 1   
   162  153  162 1   
   163  154  155 1   
   164  154  156 1   
   165  163  164 1   
   166  163  168 1   
   167  164  165 1   
   168  164  166 1   
   169  164  167 1   
   170  170  171 1   
   171  170  172 1   
   172  173  174 1   
   173  173  175 1   
@<TRIPOS>SUBSTRUCTURE
     1 MOL         1 TEMP              0 ****  ****    0 ROOT
