@<TRIPOS>MOLECULE
MOL
  194   186     1     0     0
SMALL
resp


@<TRIPOS>ATOM
      1 C1         -4.7250    0.0450   -4.4920 c3        1 MOL     -0.372819
      2 C2         -5.8590    0.3460   -3.4850 c         1 MOL      0.581063
      3 O1         -5.6300    0.7650   -2.3450 o         1 MOL     -0.440799
      4 H1         -3.7660    0.0610   -3.9740 hc        1 MOL      0.093733
      5 H2         -4.8820   -0.9390   -4.9340 hc        1 MOL      0.093733
      6 H3         -4.7250    0.8010   -5.2780 hc        1 MOL      0.093733
      7 N1         -7.0870    0.1430   -4.0470 n         1 MOL     -0.613199
      8 C3         -8.3490    0.6350   -3.4390 c3        1 MOL      0.382190
      9 C4         -8.5850    0.0020   -2.0140 c         1 MOL      0.274547
     10 O2         -8.9550    0.6190   -1.0170 o         1 MOL     -0.401213
     11 C5         -8.4580    2.1990   -3.3320 c3        1 MOL     -0.399107
     12 C6         -9.9430    2.7050   -3.1970 c         1 MOL      0.688959
     13 O3        -10.1450    3.9650   -3.1110 o         1 MOL     -0.644315
     14 O4        -10.8810    1.9130   -3.3720 o         1 MOL     -0.644315
     15 H4         -7.1920   -0.3540   -4.9260 hn        1 MOL      0.326620
     16 H5         -9.1080    0.2710   -4.1320 h1        1 MOL     -0.009256
     17 H6         -8.1120    2.5100   -4.3120 hc        1 MOL      0.123652
     18 H7         -7.7750    2.5450   -2.5590 hc        1 MOL      0.123652
     19 N2         -8.2580   -1.2960   -1.8800 n         1 MOL     -0.435948
     20 C7         -8.3680   -2.0330   -0.5930 c3        1 MOL      0.008907
     21 C8         -7.2490   -1.9060    0.4070 c         1 MOL      0.449754
     22 O5         -7.2710   -2.5870    1.4710 o         1 MOL     -0.561946
     23 C9         -8.7050   -3.5330   -0.8990 c3        1 MOL     -0.133850
     24 C10       -10.0760   -3.5930   -1.5710 c3        1 MOL      0.152307
     25 C11       -10.5820   -4.9860   -1.9110 c3        1 MOL     -0.087870
     26 C12       -10.6210   -5.8750   -0.6540 c3        1 MOL      0.008897
     27 N3        -11.0110   -7.2500   -1.0080 n4        1 MOL     -0.141089
     28 H8         -8.0990   -1.8410   -2.7140 hn        1 MOL      0.256210
     29 H9         -9.2160   -1.6070   -0.0590 h1        1 MOL      0.138918
     30 H10        -8.7340   -4.0870    0.0470 hc        1 MOL      0.035260
     31 H11        -7.9960   -4.0100   -1.5840 hc        1 MOL      0.035260
     32 H12        -9.9560   -3.1570   -2.5610 hc        1 MOL      0.012404
     33 H13       -10.8710   -3.0460   -1.0620 hc        1 MOL      0.012404
     34 H14        -9.8580   -5.3240   -2.6530 hc        1 MOL      0.033225
     35 H15       -11.5540   -4.8460   -2.3880 hc        1 MOL      0.033225
     36 H16       -11.3920   -5.4220   -0.0320 hx        1 MOL      0.083196
     37 H17        -9.7030   -5.7790   -0.0670 hx        1 MOL      0.083196
     38 H18       -12.0180   -7.3450   -1.0660 hn        1 MOL      0.197935
     39 H19       -10.6590   -7.5200   -1.9150 hn        1 MOL      0.197935
     40 H20       -10.8540   -7.9650   -0.3070 hn        1 MOL      0.197935
     41 N4         -6.1460   -1.1520    0.0470 n         1 MOL     -0.233200
     42 C13        -4.8070   -0.9910    0.7300 c3        1 MOL     -0.016575
     43 C14        -4.9190   -0.4600    2.1580 c         1 MOL      0.663546
     44 O6         -5.2140    0.7020    2.3820 o         1 MOL     -0.508805
     45 C15        -3.7680   -0.2450   -0.0940 c3        1 MOL     -0.362425
     46 C16        -2.3140   -0.2370    0.5410 c         1 MOL      0.918126
     47 O7         -1.8620   -1.1140    1.3390 o         1 MOL     -0.799311
     48 O8         -1.5720    0.6780    0.1680 o         1 MOL     -0.799311
     49 H21        -6.3040   -0.8110   -0.8880 hn        1 MOL      0.187261
     50 H22        -4.3610   -1.9790    0.8300 h1        1 MOL     -0.040459
     51 H23        -4.1110    0.7820   -0.2450 hc        1 MOL      0.123210
     52 H24        -3.7300   -0.7680   -1.0530 hc        1 MOL      0.123210
     53 N5         -4.5860   -1.3480    3.0750 n         1 MOL     -0.367932
     54 C17        -4.7420   -1.1340    4.5080 c3        1 MOL     -0.040932
     55 C18        -3.7930   -0.0960    5.1400 c         1 MOL      0.343507
     56 O9         -4.1540    0.9550    5.6680 o         1 MOL     -0.458856
     57 H25        -4.4330   -2.3060    2.8050 hn        1 MOL      0.264476
     58 H26        -4.8100   -2.0830    5.0400 h1        1 MOL      0.086336
     59 H27        -5.7520   -0.7100    4.5990 h1        1 MOL      0.086336
     60 N6         -2.4610   -0.2620    4.9140 n         1 MOL     -0.215838
     61 C19        -1.4140    0.6260    5.5040 c3        1 MOL      0.002298
     62 C20        -1.1790    1.8360    4.5960 c         1 MOL      0.370482
     63 O10        -0.7750    2.9190    5.1020 o         1 MOL     -0.528292
     64 C21        -0.1460   -0.2240    5.6540 c3        1 MOL     -0.240199
     65 C22         0.4560   -0.6660    4.3660 c         1 MOL      0.589988
     66 N7          1.5250   -0.0110    3.9620 n         1 MOL     -0.801346
     67 O11         0.0170   -1.5820    3.6710 o         1 MOL     -0.472365
     68 H28        -2.1530   -1.1640    4.5910 hn        1 MOL      0.164911
     69 H29        -1.7260    1.0660    6.4450 h1        1 MOL      0.125815
     70 H30        -0.3740   -1.1650    6.1650 hc        1 MOL      0.098314
     71 H31         0.5190    0.2840    6.3490 hc        1 MOL      0.098314
     72 H32         1.9930    0.7060    4.5090 hn        1 MOL      0.383434
     73 H33         2.0160   -0.2810    3.1230 hn        1 MOL      0.383434
     74 N8         -1.5760    1.7270    3.3180 n         1 MOL      0.235035
     75 C23        -1.6050    2.7510    2.3020 c3        1 MOL     -0.531648
     76 C24        -0.2710    3.0720    1.6050 c         1 MOL      0.712598
     77 O12         0.8580    2.8080    1.9960 o         1 MOL     -0.558620
     78 H34        -1.6940    0.7550    3.0760 hn        1 MOL     -0.084972
     79 H35        -1.9440    3.7230    2.6580 h1        1 MOL      0.196815
     80 H36        -2.2770    2.3130    1.5640 h1        1 MOL      0.196815
     81 N9         -0.3470    3.8070    0.5090 n         1 MOL     -0.462976
     82 C25         0.7440    4.4420   -0.2560 c3        1 MOL      0.041697
     83 C26         1.5820    3.3590   -1.0060 c         1 MOL      0.416388
     84 O13         1.1070    2.2420   -1.3450 o         1 MOL     -0.471433
     85 C27         0.2600    5.5220   -1.2420 c3        1 MOL      0.178192
     86 C28        -0.3990    6.7410   -0.5170 ca        1 MOL     -0.257905
     87 C29        -1.8190    6.6940   -0.2790 ca        1 MOL      0.023469
     88 C30         0.3070    7.8310   -0.0390 ca        1 MOL      0.023469
     89 C31        -2.4960    7.8470    0.2190 ca        1 MOL     -0.361945
     90 C32        -0.3620    8.9500    0.5040 ca        1 MOL     -0.361945
     91 C33        -1.7830    8.9480    0.5420 ca        1 MOL      0.447085
     92 O14        -2.4210   10.0240    1.0730 oh        1 MOL     -0.479478
     93 H37        -1.2650    4.0350    0.1450 hn        1 MOL      0.325274
     94 H38         1.4280    4.9470    0.4240 h1        1 MOL      0.055342
     95 H39        -0.4240    5.1550   -2.0050 hc        1 MOL      0.015085
     96 H40         1.0930    5.9110   -1.8300 hc        1 MOL      0.015085
     97 H41        -2.2820    5.7680   -0.5820 ha        1 MOL      0.072060
     98 H42         1.3800    7.8160   -0.1490 ha        1 MOL      0.072060
     99 H43        -3.5770    7.9160    0.1370 ha        1 MOL      0.180059
    100 H44         0.1850    9.8000    0.8870 ha        1 MOL      0.180059
    101 H45        -1.8140   10.6160    1.5170 ho        1 MOL      0.344387
    102 N10         2.8570    3.6580   -1.2590 n         1 MOL     -0.560487
    103 C34         3.7950    2.8360   -1.9960 c3        1 MOL      0.290508
    104 C35         5.0000    2.4190   -1.1590 c         1 MOL      0.627602
    105 O15         5.4200    1.2850   -1.2570 o         1 MOL     -0.631017
    106 C36         4.1960    3.3890   -3.3570 c3        1 MOL      0.156510
    107 C37         3.0920    3.7220   -4.3290 c3        1 MOL     -0.082455
    108 C38         5.1100    2.4280   -4.1970 c3        1 MOL     -0.436371
    109 C39         2.1700    2.6030   -4.8470 c3        1 MOL     -0.206896
    110 H46         3.1990    4.5730   -1.0170 hn        1 MOL      0.283733
    111 H47         3.3200    1.8840   -2.2090 h1        1 MOL     -0.006891
    112 H48         4.6880    4.3380   -3.1490 hc        1 MOL     -0.072511
    113 H49         3.5490    4.1250   -5.2300 hc        1 MOL      0.039041
    114 H50         2.3990    4.4070   -3.8380 hc        1 MOL      0.039041
    115 H51         6.0980    2.3650   -3.7350 hc        1 MOL      0.118979
    116 H52         4.6330    1.4530   -4.2100 hc        1 MOL      0.118979
    117 H53         5.2300    2.6860   -5.2510 hc        1 MOL      0.118979
    118 H54         1.5050    3.0090   -5.6120 hc        1 MOL      0.070606
    119 H55         2.8180    1.9090   -5.3740 hc        1 MOL      0.070606
    120 H56         1.7500    2.0440   -4.0190 hc        1 MOL      0.070606
    121 N11         5.6320    3.3210   -0.3900 n         1 MOL     -0.573566
    122 C40         6.5660    2.9760    0.6740 c3        1 MOL      0.144874
    123 C41         7.9850    2.4010    0.3160 c         1 MOL      0.247575
    124 O16         8.7480    2.0650    1.2080 o         1 MOL     -0.459932
    125 C42         6.6920    4.0530    1.6980 c3        1 MOL      0.184497
    126 O17         5.4130    4.4450    2.1420 oh        1 MOL     -0.570306
    127 H57         5.3590    4.2960   -0.3500 hn        1 MOL      0.283454
    128 H58         6.1500    2.1330    1.2280 h1        1 MOL      0.128474
    129 H59         7.2920    4.8340    1.2350 h1        1 MOL      0.024777
    130 H60         7.2220    3.6970    2.5870 h1        1 MOL      0.024777
    131 H61         5.5160    5.3950    2.2540 ho        1 MOL      0.375857
    132 N12         8.2930    2.2620   -0.9410 n         1 MOL     -0.190457
    133 C43         9.3280    1.3620   -1.5200 c3        1 MOL      0.184293
    134 C44         9.3070   -0.1320   -1.0380 c         1 MOL      0.496214
    135 O18        10.3530   -0.8730   -0.9920 o         1 MOL     -0.516317
    136 C45        10.6890    2.0690   -1.3750 c3        1 MOL     -0.390520
    137 H62         7.8280    2.8490   -1.6170 hn        1 MOL      0.206735
    138 H63         9.1410    1.4730   -2.5910 h1        1 MOL      0.053105
    139 H64        10.9070    2.3310   -0.3440 hc        1 MOL      0.107619
    140 H65        11.4320    1.4370   -1.8590 hc        1 MOL      0.107619
    141 H66        10.6030    2.9390   -2.0310 hc        1 MOL      0.107619
    142 N13         8.0840   -0.5660   -0.7890 n         1 MOL     -0.731496
    143 C46         7.8260   -1.8580   -0.1740 c3        1 MOL      0.753136
    144 C47         6.8670   -2.8320   -0.9350 c         1 MOL      0.343696
    145 O19         5.8660   -2.3960   -1.4940 o         1 MOL     -0.502919
    146 C48         7.4460   -1.8040    1.3540 c3        1 MOL     -0.104882
    147 H67         7.2910    0.0400   -0.9630 hn        1 MOL      0.304588
    148 H68         8.7100   -2.4960   -0.1380 h1        1 MOL     -0.111055
    149 H69         7.6590   -2.7670    1.8100 hc        1 MOL      0.009251
    150 H70         7.9640   -0.9680    1.8120 hc        1 MOL      0.009251
    151 H71         6.3830   -1.5420    1.4370 hc        1 MOL      0.009251
    152 N14         7.1070   -4.1740   -0.8300 n         1 MOL     -0.467713
    153 C49         6.2360   -5.2270   -1.4040 c3        1 MOL     -0.146842
    154 C50         6.1250   -5.0890   -2.9460 c         1 MOL      0.353020
    155 O20         5.2380   -5.6990   -3.5550 o         1 MOL     -0.480875
    156 C51         4.8920   -5.3260   -0.6250 c3        1 MOL      0.204211
    157 C52         4.9630   -5.6340    0.8810 c3        1 MOL     -0.058324
    158 C53         5.6530   -6.9700    1.1870 c         1 MOL      0.607886
    159 O21         5.4490   -7.9510    0.4740 o         1 MOL     -0.663600
    160 O22         6.5780   -7.0470    2.0170 o         1 MOL     -0.663600
    161 H72         7.9600   -4.5420   -0.4450 hn        1 MOL      0.320976
    162 H73         6.7820   -6.1550   -1.2390 h1        1 MOL      0.189116
    163 H74         4.3750   -6.1710   -1.0720 hc        1 MOL     -0.027028
    164 H75         4.2180   -4.4680   -0.6440 hc        1 MOL     -0.027028
    165 H76         3.9760   -5.7300    1.3240 hc        1 MOL     -0.046026
    166 H77         5.5380   -4.8250    1.3360 hc        1 MOL     -0.046026
    167 N15         7.1490   -4.5560   -3.6070 n         1 MOL     -0.190195
    168 C54         7.0520   -4.2070   -5.0060 c3        1 MOL     -0.041214
    169 H78         6.0030   -4.1310   -5.2890 h1        1 MOL      0.051912
    170 H79         7.5440   -3.2490   -5.1760 h1        1 MOL      0.051912
    171 H80         7.5360   -4.9760   -5.6070 h1        1 MOL      0.051912
    172 H81         7.9250   -4.1680   -3.0870 hn        1 MOL      0.190975
    173 Ca1         0.3240   -2.5330    1.2840 Ca        1 MOL      1.761720
    174 O23         2.7240   -2.8100    2.8300 oh        1 MOL     -0.853273
    175 H82         3.5770   -2.6940    2.4160 ho        1 MOL      0.425974
    176 H83         2.9130   -3.0820    3.7230 ho        1 MOL      0.425974
    177 O24        -0.5340   -4.5090    2.9940 oh        1 MOL     -0.853273
    178 H84        -0.2170   -5.0030    3.7490 ho        1 MOL      0.425974
    179 H85        -0.7990   -5.1930    2.3680 ho        1 MOL      0.425974
    180 O25        -1.8750   -4.1410    0.5760 oh        1 MOL     -0.853273
    181 H86        -2.4410   -4.8640    0.3020 ho        1 MOL      0.425974
    182 H87        -2.2270   -3.3730    0.1370 ho        1 MOL      0.425974
    183 O26         1.0750    0.1250    1.0990 oh        1 MOL     -0.853273
    184 H88         0.3340    0.5180    0.6260 ho        1 MOL      0.425974
    185 H89         1.6990    0.8410    1.2130 ho        1 MOL      0.425974
    186 O27         1.3060   -4.8530    0.3140 oh        1 MOL     -0.853273
    187 H90         1.2270   -5.1720   -0.5770 ho        1 MOL      0.425974
    188 H91         1.3210   -5.6470    0.8520 ho        1 MOL      0.425974
    189 O28         2.4630   -2.1720   -0.3910 oh        1 MOL     -0.853273
    190 H92         2.0410   -1.4380   -0.8530 ho        1 MOL      0.425974
    191 H93         3.3560   -2.1670   -0.7070 ho        1 MOL      0.425974
    192 O29        -0.3670   -2.4460   -1.2800 oh        1 MOL     -0.853273
    193 H94        -1.0020   -2.7840   -1.9110 ho        1 MOL      0.425974
    194 H95         0.1940   -1.8630   -1.7980 ho        1 MOL      0.425974
@<TRIPOS>BOND
     1    1    2 1   
     2    1    4 1   
     3    1    5 1   
     4    1    6 1   
     5    2    3 2   
     6    2    7 1   
     7    7    8 1   
     8    7   15 1   
     9    8    9 1   
    10    8   11 1   
    11    8   16 1   
    12    9   10 2   
    13    9   19 1   
    14   11   12 1   
    15   11   17 1   
    16   11   18 1   
    17   12   13 1   
    18   12   14 1   
    19   19   20 1   
    20   19   28 1   
    21   20   21 1   
    22   20   23 1   
    23   20   29 1   
    24   21   22 2   
    25   21   41 1   
    26   23   24 1   
    27   23   30 1   
    28   23   31 1   
    29   24   25 1   
    30   24   32 1   
    31   24   33 1   
    32   25   26 1   
    33   25   34 1   
    34   25   35 1   
    35   26   27 1   
    36   26   36 1   
    37   26   37 1   
    38   27   38 1   
    39   27   39 1   
    40   27   40 1   
    41   41   42 1   
    42   41   49 1   
    43   42   43 1   
    44   42   45 1   
    45   42   50 1   
    46   43   44 2   
    47   43   53 1   
    48   45   46 1   
    49   45   51 1   
    50   45   52 1   
    51   46   47 1   
    52   46   48 1   
    53   53   54 1   
    54   53   57 1   
    55   54   55 1   
    56   54   58 1   
    57   54   59 1   
    58   55   56 2   
    59   55   60 1   
    60   60   61 1   
    61   60   68 1   
    62   61   62 1   
    63   61   64 1   
    64   61   69 1   
    65   62   63 2   
    66   62   74 1   
    67   64   65 1   
    68   64   70 1   
    69   64   71 1   
    70   65   66 1   
    71   65   67 2   
    72   66   72 1   
    73   66   73 1   
    74   74   75 1   
    75   74   78 1   
    76   75   76 1   
    77   75   79 1   
    78   75   80 1   
    79   76   77 2   
    80   76   81 1   
    81   81   82 1   
    82   81   93 1   
    83   82   83 1   
    84   82   85 1   
    85   82   94 1   
    86   83   84 2   
    87   83  102 1   
    88   85   86 1   
    89   85   95 1   
    90   85   96 1   
    91   86   87 ar  
    92   86   88 ar  
    93   87   89 ar  
    94   87   97 1   
    95   88   90 ar  
    96   88   98 1   
    97   89   91 ar  
    98   89   99 1   
    99   90   91 ar  
   100   90  100 1   
   101   91   92 1   
   102   92  101 1   
   103  102  103 1   
   104  102  110 1   
   105  103  104 1   
   106  103  106 1   
   107  103  111 1   
   108  104  105 2   
   109  104  121 1   
   110  106  107 1   
   111  106  108 1   
   112  106  112 1   
   113  107  109 1   
   114  107  113 1   
   115  107  114 1   
   116  108  115 1   
   117  108  116 1   
   118  108  117 1   
   119  109  118 1   
   120  109  119 1   
   121  109  120 1   
   122  121  122 1   
   123  121  127 1   
   124  122  123 1   
   125  122  125 1   
   126  122  128 1   
   127  123  124 2   
   128  123  132 1   
   129  125  126 1   
   130  125  129 1   
   131  125  130 1   
   132  126  131 1   
   133  132  133 1   
   134  132  137 1   
   135  133  134 1   
   136  133  136 1   
   137  133  138 1   
   138  134  135 2   
   139  134  142 1   
   140  136  139 1   
   141  136  140 1   
   142  136  141 1   
   143  142  143 1   
   144  142  147 1   
   145  143  144 1   
   146  143  146 1   
   147  143  148 1   
   148  144  145 2   
   149  144  152 1   
   150  146  149 1   
   151  146  150 1   
   152  146  151 1   
   153  152  153 1   
   154  152  161 1   
   155  153  154 1   
   156  153  156 1   
   157  153  162 1   
   158  154  155 2   
   159  154  167 1   
   160  156  157 1   
   161  156  163 1   
   162  156  164 1   
   163  157  158 1   
   164  157  165 1   
   165  157  166 1   
   166  158  159 1   
   167  158  160 1   
   168  167  168 1   
   169  167  172 1   
   170  168  169 1   
   171  168  170 1   
   172  168  171 1   
   173  174  175 1   
   174  174  176 1   
   175  177  178 1   
   176  177  179 1   
   177  180  181 1   
   178  180  182 1   
   179  183  184 1   
   180  183  185 1   
   181  186  187 1   
   182  186  188 1   
   183  189  190 1   
   184  189  191 1   
   185  192  193 1   
   186  192  194 1   
@<TRIPOS>SUBSTRUCTURE
     1 MOL         1 TEMP              0 ****  ****    0 ROOT
