@<TRIPOS>MOLECULE
MOL
  195   189     1     0     0
SMALL
resp


@<TRIPOS>ATOM
      1 C1          5.8940   -4.0320   -1.0540 c3        1 MOL     -0.511575
      2 C2          4.8020   -2.9970   -0.7940 c         1 MOL      0.951654
      3 O1          5.1250   -1.7820   -0.8460 o         1 MOL     -0.647001
      4 H1          6.1660   -4.0140   -2.1100 hc        1 MOL      0.136609
      5 H2          6.7700   -3.7960   -0.4500 hc        1 MOL      0.136609
      6 H3          5.5250   -5.0240   -0.7900 hc        1 MOL      0.136609
      7 N1          3.5690   -3.2200   -0.5620 n         1 MOL     -0.634760
      8 C3          2.7500   -4.4590   -0.3020 c3        1 MOL      0.054490
      9 C4          1.8030   -4.8380   -1.4700 c         1 MOL      0.489913
     10 O2          1.3640   -5.9730   -1.5630 o         1 MOL     -0.539227
     11 C5          2.0580   -4.4960    1.1060 c3        1 MOL      0.084085
     12 C6          2.9760   -4.2230    2.2380 c         1 MOL      0.591026
     13 O3          2.8400   -3.1850    2.9620 o         1 MOL     -0.672047
     14 O4          3.7800   -5.1880    2.4680 o         1 MOL     -0.672047
     15 H4          2.9800   -2.4000   -0.4790 hn        1 MOL      0.152227
     16 H5          3.3930   -5.3410   -0.2120 h1        1 MOL      0.055603
     17 H6          1.6050   -5.4830    1.1900 hc        1 MOL      0.002241
     18 H7          1.1920   -3.8250    1.1500 hc        1 MOL      0.002241
     19 N2          1.6930   -3.9490   -2.4420 n         1 MOL     -0.276589
     20 C7          0.9780   -4.1550   -3.7070 c3        1 MOL     -0.233945
     21 C8         -0.5630   -4.0130   -3.6070 c         1 MOL      0.404194
     22 O5         -1.2080   -3.9360   -4.6300 o         1 MOL     -0.548433
     23 C9          1.5520   -3.2310   -4.8370 c3        1 MOL      0.239149
     24 C10         1.7880   -1.7390   -4.5660 c3        1 MOL     -0.025659
     25 C11         2.8650   -3.8530   -5.2910 c3        1 MOL     -0.216164
     26 C12         0.5330   -0.8790   -4.3420 c3        1 MOL     -0.004949
     27 H8          2.1690   -3.0600   -2.3970 hn        1 MOL      0.223651
     28 H9          1.0980   -5.2050   -3.9720 h1        1 MOL      0.160992
     29 H10         0.8720   -3.2840   -5.6810 hc        1 MOL      0.010901
     30 H11         2.3290   -1.3530   -5.4270 hc        1 MOL     -0.011581
     31 H12         2.4610   -1.6460   -3.7060 hc        1 MOL     -0.011581
     32 H13         3.6680   -3.5500   -4.6200 hc        1 MOL      0.034852
     33 H14         2.7850   -4.9400   -5.3380 hc        1 MOL      0.034852
     34 H15         3.2160   -3.5040   -6.2590 hc        1 MOL      0.034852
     35 H16         0.0000   -1.2100   -3.4480 hc        1 MOL      0.012218
     36 H17         0.6340    0.2060   -4.3240 hc        1 MOL      0.012218
     37 H18        -0.1760   -1.0320   -5.1600 hc        1 MOL      0.012218
     38 N3         -1.1510   -3.7730   -2.4510 n         1 MOL      0.009211
     39 C13        -2.5690   -3.8280   -2.1260 c3        1 MOL      0.031851
     40 C14        -2.8850   -4.3260   -0.7350 c         1 MOL      0.365680
     41 O6         -1.9680   -4.5120    0.0940 o         1 MOL     -0.495125
     42 C15        -3.2410   -2.4570   -2.4400 c3        1 MOL     -0.298720
     43 C16        -4.6450   -2.5170   -2.8700 c         1 MOL      0.799893
     44 O7         -5.2830   -3.6340   -2.8330 o         1 MOL     -0.747738
     45 O8         -5.1900   -1.4600   -3.2150 o         1 MOL     -0.747738
     46 H19        -0.4570   -3.7620   -1.7080 hn        1 MOL      0.054553
     47 H20        -3.0130   -4.6320   -2.7010 h1        1 MOL      0.038965
     48 H21        -2.6950   -1.9050   -3.2150 hc        1 MOL      0.105395
     49 H22        -3.2100   -1.8750   -1.5200 hc        1 MOL      0.105395
     50 N4         -4.1690   -4.6010   -0.3260 n         1 MOL     -0.344255
     51 C17        -4.6580   -4.6620    0.9640 c3        1 MOL     -0.019143
     52 C18        -5.1940   -3.2960    1.2670 c         1 MOL      0.624639
     53 O9         -4.6270   -2.2750    0.8460 o         1 MOL     -0.522039
     54 H23        -4.8520   -4.7020   -1.0640 hn        1 MOL      0.290586
     55 H24        -4.0360   -5.0980    1.7390 h1        1 MOL      0.038112
     56 H25        -5.5310   -5.3030    0.9210 h1        1 MOL      0.038112
     57 N5         -6.3270   -3.2600    1.9920 n         1 MOL     -0.623914
     58 C19        -7.0130   -2.0010    2.4400 c3        1 MOL      0.457922
     59 C20        -8.4720   -1.8940    2.1940 c         1 MOL      0.562355
     60 O10        -9.1780   -2.7430    2.6150 o         1 MOL     -0.597474
     61 C21        -6.5740   -1.7160    3.9420 c3        1 MOL     -0.459185
     62 C22        -7.4130   -0.6750    4.6650 c         1 MOL      0.793162
     63 O11        -7.6930    0.4490    4.1200 o         1 MOL     -0.758525
     64 O12        -7.8210   -0.8670    5.8990 o         1 MOL     -0.758525
     65 H26        -6.7940   -4.1220    2.2520 hn        1 MOL      0.286327
     66 H27        -6.5420   -1.1620    1.9180 h1        1 MOL      0.045219
     67 H28        -5.5680   -1.2830    3.9670 hc        1 MOL      0.068981
     68 H29        -6.5550   -2.6660    4.4930 hc        1 MOL      0.068981
     69 N6         -9.0610   -0.8260    1.6340 n         1 MOL     -0.541011
     70 C23        -8.5200    0.2260    0.8930 c3        1 MOL      0.282957
     71 C24        -8.0940   -0.2210   -0.5020 c         1 MOL      0.396363
     72 O13        -8.4160   -1.4100   -0.7320 o         1 MOL     -0.513152
     73 H30       -10.0700   -0.8760    1.6500 hn        1 MOL      0.298506
     74 H31        -7.6980    0.7230    1.4120 h1        1 MOL     -0.032726
     75 H32        -9.2340    1.0490    0.8080 h1        1 MOL     -0.032726
     76 N7         -7.3690    0.4970   -1.3780 n         1 MOL     -0.513665
     77 C25        -6.7500    1.8510   -1.3290 c3        1 MOL     -0.103917
     78 C26        -5.4610    1.8730   -0.4410 c         1 MOL      0.875738
     79 O14        -5.4290    1.3210    0.6350 o         1 MOL     -0.595146
     80 C27        -7.7890    2.8800   -0.8540 c3        1 MOL      0.151718
     81 C28        -7.2450    4.2580   -1.2160 c3        1 MOL     -0.215852
     82 C29        -8.2100    5.3300   -0.6510 c         1 MOL      0.594717
     83 N8         -8.3940    5.4860    0.6100 n         1 MOL     -0.743557
     84 O15        -8.9830    5.9010   -1.3910 o         1 MOL     -0.579221
     85 H33        -7.1310    0.0140   -2.2270 hn        1 MOL      0.347951
     86 H34        -6.4300    2.0740   -2.3480 h1        1 MOL      0.102515
     87 H35        -7.8150    2.7270    0.2260 hc        1 MOL      0.029380
     88 H36        -8.7750    2.7570   -1.3060 hc        1 MOL      0.029380
     89 H37        -7.2920    4.4500   -2.2880 hc        1 MOL      0.018986
     90 H38        -6.2670    4.3550   -0.7330 hc        1 MOL      0.018986
     91 H39        -7.8020    5.1040    1.3270 hn        1 MOL      0.352044
     92 H40        -9.0740    6.1610    0.9250 hn        1 MOL      0.352044
     93 N9         -4.3770    2.3980   -1.0310 n         1 MOL     -0.590117
     94 C30        -3.0580    2.5090   -0.3480 c3        1 MOL      0.064726
     95 C31        -2.1030    1.4990   -0.9510 c         1 MOL      0.487180
     96 O16        -2.1530    1.1300   -2.0990 o         1 MOL     -0.537036
     97 C32        -2.5480    4.0020   -0.2730 c3        1 MOL      0.511369
     98 C33        -1.1650    4.0850    0.3310 c3        1 MOL     -0.492177
     99 C34        -3.5040    4.9210    0.4750 c3        1 MOL     -0.492177
    100 H41        -4.4560    2.6710   -1.9990 hn        1 MOL      0.254627
    101 H42        -3.1630    2.2160    0.7020 h1        1 MOL      0.032240
    102 H43        -2.5110    4.3740   -1.2880 hc        1 MOL     -0.086333
    103 H44        -1.1180    3.7270    1.3620 hc        1 MOL      0.116782
    104 H45        -0.5620    3.5330   -0.3910 hc        1 MOL      0.116782
    105 H46        -0.8390    5.1220    0.3640 hc        1 MOL      0.116782
    106 H47        -4.4100    4.3980    0.7710 hc        1 MOL      0.116782
    107 H48        -3.0530    5.4710    1.3070 hc        1 MOL      0.116782
    108 H49        -3.8490    5.6140   -0.2940 hc        1 MOL      0.116782
    109 N10        -1.2280    0.9340   -0.1570 n         1 MOL     -0.307006
    110 C35        -0.4120   -0.2450   -0.5770 c3        1 MOL      0.365587
    111 C36         1.0430    0.0880   -1.0000 c         1 MOL      0.141783
    112 O17         1.9470   -0.7210   -0.9620 o         1 MOL     -0.401448
    113 C37        -0.5620   -1.2130    0.5900 c3        1 MOL     -0.148481
    114 C38         0.1570   -0.5390    1.8070 c         1 MOL      0.553877
    115 N11        -0.6300    0.0660    2.6370 n         1 MOL     -0.703398
    116 O18         1.3420   -0.5160    1.8780 o         1 MOL     -0.589202
    117 H50        -1.1590    1.2990    0.7790 hn        1 MOL      0.177542
    118 H51        -0.7630   -0.7830   -1.4670 h1        1 MOL     -0.041964
    119 H52         0.0380   -2.0800    0.3430 hc        1 MOL      0.060189
    120 H53        -1.6070   -1.4970    0.7180 hc        1 MOL      0.060189
    121 H54        -1.6070   -0.1770    2.5940 hn        1 MOL      0.350954
    122 H55        -0.2570    0.5210    3.4540 hn        1 MOL      0.350954
    123 N12         1.2240    1.3150   -1.3890 n         1 MOL      0.049530
    124 C39         2.5820    1.8570   -1.7780 c3        1 MOL      0.024828
    125 C40         3.3040    2.3430   -0.5500 c         1 MOL      0.723195
    126 O19         2.7330    2.6260    0.5240 o         1 MOL     -0.546001
    127 C41         2.4540    2.8220   -2.9570 c3        1 MOL      0.166437
    128 C42         1.4070    3.9800   -2.7960 ca        1 MOL     -0.037548
    129 C43         1.8630    5.1910   -2.2750 ca        1 MOL     -0.057663
    130 C44         0.1100    3.7570   -3.3000 ca        1 MOL     -0.057663
    131 C45         0.8760    6.1840   -2.0620 ca        1 MOL     -0.369060
    132 C46        -0.7910    4.8420   -3.2970 ca        1 MOL     -0.369060
    133 C47        -0.4580    6.0040   -2.6420 ca        1 MOL      0.407631
    134 O20        -1.4120    6.9300   -2.5810 oh        1 MOL     -0.534659
    135 H56         0.4310    1.9310   -1.3350 hn        1 MOL     -0.113626
    136 H57         3.1540    1.0410   -2.2240 h1        1 MOL      0.041038
    137 H58         2.1460    2.2230   -3.8170 hc        1 MOL     -0.065935
    138 H59         3.4040    3.3110   -3.1690 hc        1 MOL     -0.065935
    139 H60         2.8990    5.3450   -1.9930 ha        1 MOL      0.141676
    140 H61        -0.2580    2.8390   -3.7330 ha        1 MOL      0.141676
    141 H62         1.0620    7.0840   -1.4920 ha        1 MOL      0.183099
    142 H63        -1.8100    4.6480   -3.6050 ha        1 MOL      0.183099
    143 H64        -2.1670    6.8180   -3.1610 ho        1 MOL      0.384163
    144 N13         4.5540    2.4940   -0.7180 n         1 MOL     -0.677551
    145 C48         5.4680    3.0470    0.2340 c3        1 MOL     -0.239157
    146 C49         6.8140    2.3440    0.0120 c         1 MOL      0.620654
    147 O21         7.7620    2.8990   -0.5740 o         1 MOL     -0.545868
    148 C50         5.5410    4.5510    0.0350 c3        1 MOL      0.071028
    149 C51         6.3370    5.1000    1.1590 c3        1 MOL     -0.339390
    150 C52         5.4910    5.1840    2.4760 c         1 MOL      0.724426
    151 O22         6.0490    4.9510    3.5740 o         1 MOL     -0.728761
    152 O23         4.2850    5.4730    2.4930 o         1 MOL     -0.728761
    153 H65         4.9800    2.3730   -1.6270 hn        1 MOL      0.397042
    154 H66         5.1800    2.9260    1.2800 h1        1 MOL      0.267459
    155 H67         4.5360    4.9760    0.0430 hc        1 MOL      0.022515
    156 H68         6.0300    4.8290   -0.8980 hc        1 MOL      0.022515
    157 H69         6.5310    6.1220    0.8120 hc        1 MOL      0.046049
    158 H70         7.3100    4.6620    1.3920 hc        1 MOL      0.046049
    159 N14         6.8930    1.0490    0.3090 n         1 MOL     -0.011603
    160 C53         8.0380    0.1870   -0.0580 c3        1 MOL     -0.410818
    161 C54         8.0740   -0.0040   -1.5950 c         1 MOL      0.560773
    162 O24         9.0720    0.3460   -2.2330 o         1 MOL     -0.558008
    163 C55         8.1460   -1.0930    0.7570 c3        1 MOL      0.331390
    164 C56         8.0560   -0.7540    2.2270 c3        1 MOL     -0.159828
    165 C57         6.6470   -0.7890    2.8170 c         1 MOL      0.639816
    166 O25         6.1630   -1.8360    3.3020 o         1 MOL     -0.714782
    167 O26         5.9430    0.2420    2.7240 o         1 MOL     -0.714782
    168 H71         6.1850    0.6710    0.9290 hn        1 MOL     -0.000399
    169 H72         8.9190    0.7200    0.2900 h1        1 MOL      0.125715
    170 H73         9.0800   -1.6240    0.5990 hc        1 MOL     -0.044506
    171 H74         7.4220   -1.8520    0.4550 hc        1 MOL     -0.044506
    172 H75         8.4890    0.2260    2.4360 hc        1 MOL      0.026883
    173 H76         8.7000   -1.4870    2.7120 hc        1 MOL      0.026883
    174 N15         7.0550   -0.5290   -2.2680 n         1 MOL     -0.398826
    175 C58         6.7490   -0.1270   -3.6740 c3        1 MOL     -0.082053
    176 H77         6.4690   -1.0090   -4.2500 h1        1 MOL      0.058127
    177 H78         5.9230    0.5850   -3.6790 h1        1 MOL      0.058127
    178 H79         7.6300    0.3330   -4.1210 h1        1 MOL      0.058127
    179 H80         6.2940   -1.0600   -1.8640 hn        1 MOL      0.259710
    180 Ca1         3.5940   -0.7380    3.3980 Ca        1 MOL      1.746277
    181 O27         1.2670   -0.6070    5.0130 oh        1 MOL     -0.808483
    182 H81         0.7170    0.0260    5.4590 ho        1 MOL      0.401954
    183 H82         0.7720   -1.4210    5.0430 ho        1 MOL      0.401954
    184 O28         3.8940   -0.2140    0.8860 oh        1 MOL     -0.808483
    185 H83         3.0490   -0.1660    0.4370 ho        1 MOL      0.401954
    186 H84         4.4120   -0.8330    0.3760 ho        1 MOL      0.401954
    187 O29         2.2980    1.6780    3.2670 oh        1 MOL     -0.808483
    188 H85         2.0750    1.9610    2.3750 ho        1 MOL      0.401954
    189 H86         2.0580    2.4210    3.8160 ho        1 MOL      0.401954
    190 O30         4.2940   -2.1440    5.5540 oh        1 MOL     -0.808483
    191 H87         4.7280   -1.7100    6.2890 ho        1 MOL      0.401954
    192 H88         4.2230   -3.0630    5.8310 ho        1 MOL      0.401954
    193 O31         4.0780    1.2100    5.5340 oh        1 MOL     -0.808483
    194 H89         4.3810    1.1570    6.4400 ho        1 MOL      0.401954
    195 H90         4.0910    2.1450    5.3300 ho        1 MOL      0.401954
@<TRIPOS>BOND
     1    1    2 1   
     2    1    4 1   
     3    1    5 1   
     4    1    6 1   
     5    2    3 2   
     6    2    7 1   
     7    7    8 1   
     8    7   15 1   
     9    8    9 1   
    10    8   11 1   
    11    8   16 1   
    12    9   10 2   
    13    9   19 1   
    14   11   12 1   
    15   11   17 1   
    16   11   18 1   
    17   12   13 1   
    18   12   14 1   
    19   19   20 1   
    20   19   27 1   
    21   20   21 1   
    22   20   23 1   
    23   20   28 1   
    24   21   22 2   
    25   21   38 1   
    26   23   24 1   
    27   23   25 1   
    28   23   29 1   
    29   24   26 1   
    30   24   30 1   
    31   24   31 1   
    32   25   32 1   
    33   25   33 1   
    34   25   34 1   
    35   26   35 1   
    36   26   36 1   
    37   26   37 1   
    38   38   39 1   
    39   38   46 1   
    40   39   40 1   
    41   39   42 1   
    42   39   47 1   
    43   40   41 2   
    44   40   50 1   
    45   42   43 1   
    46   42   48 1   
    47   42   49 1   
    48   43   44 1   
    49   43   45 1   
    50   50   51 1   
    51   50   54 1   
    52   51   52 1   
    53   51   55 1   
    54   51   56 1   
    55   52   53 2   
    56   52   57 1   
    57   57   58 1   
    58   57   65 1   
    59   58   59 1   
    60   58   61 1   
    61   58   66 1   
    62   59   60 2   
    63   59   69 1   
    64   61   62 1   
    65   61   67 1   
    66   61   68 1   
    67   62   63 1   
    68   62   64 1   
    69   69   70 1   
    70   69   73 1   
    71   70   71 1   
    72   70   74 1   
    73   70   75 1   
    74   71   72 2   
    75   71   76 1   
    76   76   77 1   
    77   76   85 1   
    78   77   78 1   
    79   77   80 1   
    80   77   86 1   
    81   78   79 2   
    82   78   93 1   
    83   80   81 1   
    84   80   87 1   
    85   80   88 1   
    86   81   82 1   
    87   81   89 1   
    88   81   90 1   
    89   82   83 1   
    90   82   84 2   
    91   83   91 1   
    92   83   92 1   
    93   93   94 1   
    94   93  100 1   
    95   94   95 1   
    96   94   97 1   
    97   94  101 1   
    98   95   96 2   
    99   95  109 1   
   100   97   98 1   
   101   97   99 1   
   102   97  102 1   
   103   98  103 1   
   104   98  104 1   
   105   98  105 1   
   106   99  106 1   
   107   99  107 1   
   108   99  108 1   
   109  109  110 1   
   110  109  117 1   
   111  110  111 1   
   112  110  113 1   
   113  110  118 1   
   114  111  112 2   
   115  111  123 1   
   116  113  114 1   
   117  113  119 1   
   118  113  120 1   
   119  114  115 1   
   120  114  116 2   
   121  115  121 1   
   122  115  122 1   
   123  123  124 1   
   124  123  135 1   
   125  124  125 1   
   126  124  127 1   
   127  124  136 1   
   128  125  126 2   
   129  125  144 1   
   130  127  128 1   
   131  127  137 1   
   132  127  138 1   
   133  128  129 ar  
   134  128  130 ar  
   135  129  131 ar  
   136  129  139 1   
   137  130  132 ar  
   138  130  140 1   
   139  131  133 ar  
   140  131  141 1   
   141  132  133 ar  
   142  132  142 1   
   143  133  134 1   
   144  134  143 1   
   145  144  145 1   
   146  144  153 1   
   147  145  146 1   
   148  145  148 1   
   149  145  154 1   
   150  146  147 2   
   151  146  159 1   
   152  148  149 1   
   153  148  155 1   
   154  148  156 1   
   155  149  150 1   
   156  149  157 1   
   157  149  158 1   
   158  150  151 1   
   159  150  152 1   
   160  159  160 1   
   161  159  168 1   
   162  160  161 1   
   163  160  163 1   
   164  160  169 1   
   165  161  162 2   
   166  161  174 1   
   167  163  164 1   
   168  163  170 1   
   169  163  171 1   
   170  164  165 1   
   171  164  172 1   
   172  164  173 1   
   173  165  166 1   
   174  165  167 1   
   175  174  175 1   
   176  174  179 1   
   177  175  176 1   
   178  175  177 1   
   179  175  178 1   
   180  181  182 1   
   181  181  183 1   
   182  184  185 1   
   183  184  186 1   
   184  187  188 1   
   185  187  189 1   
   186  190  191 1   
   187  190  192 1   
   188  193  194 1   
   189  193  195 1   
@<TRIPOS>SUBSTRUCTURE
     1 MOL         1 TEMP              0 ****  ****    0 ROOT
