@<TRIPOS>MOLECULE
MOL
  189   185     1     0     0
SMALL
resp


@<TRIPOS>ATOM
      1 C1          3.7820    5.3020    2.0130 c3        1 MOL      0.259845
      2 C2          2.7850    5.1660    0.8600 c         1 MOL      0.575686
      3 O1          2.3180    4.0870    0.4320 o         1 MOL     -0.490976
      4 H1          3.3480    5.9200    2.7980 hc        1 MOL     -0.091843
      5 H2          4.0110    4.3140    2.4140 hc        1 MOL     -0.091843
      6 H3          4.6980    5.7680    1.6500 hc        1 MOL     -0.091843
      7 N1          2.3870    6.2910    0.2580 n         1 MOL     -0.610948
      8 C3          1.5260    6.4200   -0.8550 c3        1 MOL     -0.039989
      9 C4          0.0590    5.8910   -0.5370 c         1 MOL      0.744667
     10 O2         -0.7060    5.4680   -1.4310 o         1 MOL     -0.526361
     11 C5          2.1470    5.8090   -2.0550 c3        1 MOL     -0.820577
     12 C6          3.5980    6.0460   -2.2800 c         1 MOL      1.003146
     13 O3          3.9540    7.0870   -2.8210 o         1 MOL     -0.711671
     14 O4          4.5270    5.2520   -2.0060 o         1 MOL     -0.711671
     15 H4          2.8310    7.1160    0.6330 hn        1 MOL      0.298023
     16 H5          1.4370    7.4870   -1.0580 h1        1 MOL      0.132127
     17 H6          1.5820    6.3180   -2.8270 hc        1 MOL      0.256743
     18 H7          1.9610    4.7440   -1.9740 hc        1 MOL      0.256743
     19 N2         -0.2610    5.9130    0.7580 n         1 MOL     -0.661606
     20 C7         -1.5850    5.4120    1.2970 c3        1 MOL     -0.036594
     21 C8         -2.8300    6.1280    0.5410 c         1 MOL      0.449865
     22 O5         -2.7010    7.2770    0.1080 o         1 MOL     -0.549639
     23 C9         -1.7230    5.4150    2.8750 c3        1 MOL      0.070399
     24 C10        -1.5120    6.8160    3.5140 c3        1 MOL      0.212162
     25 C11        -0.7200    4.4070    3.6420 c3        1 MOL     -0.322489
     26 C12        -2.1250    6.9870    4.8660 c3        1 MOL     -0.207892
     27 H8          0.4420    6.2100    1.4300 hn        1 MOL      0.322029
     28 H9         -1.7030    4.4000    0.9140 h1        1 MOL      0.165640
     29 H10        -2.7250    4.9780    2.9570 hc        1 MOL      0.031420
     30 H11        -1.8870    7.6460    2.9020 hc        1 MOL     -0.021158
     31 H12        -0.4350    6.9210    3.6170 hc        1 MOL     -0.021158
     32 H13        -0.8480    3.4290    3.1760 hc        1 MOL      0.087551
     33 H14         0.3230    4.7130    3.6020 hc        1 MOL      0.087551
     34 H15        -0.9770    4.3620    4.7000 hc        1 MOL      0.087551
     35 H16        -3.1720    6.6710    4.7990 hc        1 MOL      0.032980
     36 H17        -1.6280    6.3590    5.6050 hc        1 MOL      0.032980
     37 H18        -1.9820    8.0290    5.1580 hc        1 MOL      0.032980
     38 N3         -3.9920    5.5230    0.4020 n         1 MOL     -0.298488
     39 C13        -4.3100    4.1030    0.6800 c3        1 MOL     -0.110776
     40 C14        -4.0880    3.2780   -0.5650 c         1 MOL      0.391353
     41 O6         -4.0810    2.0490   -0.4480 o         1 MOL     -0.497808
     42 C15        -5.7380    3.8520    1.2160 c3        1 MOL     -0.321569
     43 C16        -6.9530    4.0460    0.2860 c         1 MOL      0.780911
     44 O7         -6.8180    4.8230   -0.7000 o         1 MOL     -0.699266
     45 O8         -8.0230    3.5680    0.5190 o         1 MOL     -0.699266
     46 H19        -4.7750    6.0800    0.0800 hn        1 MOL      0.254899
     47 H20        -3.5630    3.7450    1.3830 h1        1 MOL      0.109892
     48 H21        -5.7670    4.4800    2.1160 hc        1 MOL      0.076101
     49 H22        -5.8070    2.8600    1.6520 hc        1 MOL      0.076101
     50 N4         -3.7170    3.8230   -1.7800 n         1 MOL     -0.299425
     51 C17        -3.2100    2.9000   -2.8560 c3        1 MOL     -0.112712
     52 C18        -4.3040    2.1140   -3.4850 c         1 MOL      0.554086
     53 O9         -5.0110    2.7020   -4.2960 o         1 MOL     -0.565185
     54 H23        -3.5590    4.8090   -1.8830 hn        1 MOL      0.308365
     55 H24        -2.5120    2.1640   -2.4690 h1        1 MOL      0.077580
     56 H25        -2.6960    3.3780   -3.6900 h1        1 MOL      0.077580
     57 N5         -4.5630    0.8340   -3.0620 n         1 MOL     -0.435555
     58 C19        -5.7800    0.1160   -3.4970 c3        1 MOL      0.163432
     59 C20        -6.7270   -0.0930   -2.2970 c         1 MOL      0.373546
     60 O10        -7.7930   -0.6980   -2.4650 o         1 MOL     -0.561989
     61 C21        -5.4020   -1.2640   -4.0510 c3        1 MOL     -0.191542
     62 C22        -4.1560   -1.9680   -3.4990 c         1 MOL      0.635916
     63 O11        -3.2490   -2.3030   -4.2840 o         1 MOL     -0.651026
     64 O12        -4.0420   -2.0540   -2.2360 o         1 MOL     -0.651026
     65 H26        -3.9150    0.4510   -2.3820 hn        1 MOL      0.289756
     66 H27        -6.3920    0.6530   -4.2250 h1        1 MOL      0.073838
     67 H28        -5.2230   -1.1130   -5.1180 hc        1 MOL      0.013754
     68 H29        -6.2530   -1.9470   -4.0020 hc        1 MOL      0.013754
     69 N6         -6.3330    0.4130   -1.1420 n         1 MOL     -0.125018
     70 C23        -6.9820    0.1700    0.1710 c3        1 MOL     -0.278530
     71 C24        -6.9480   -1.2950    0.7020 c         1 MOL      0.505915
     72 O13        -7.6290   -1.7320    1.6190 o         1 MOL     -0.595323
     73 H30        -5.5410    1.0150   -1.2450 hn        1 MOL      0.251750
     74 H31        -7.9950    0.5700    0.2450 h1        1 MOL      0.146727
     75 H32        -6.4270    0.8130    0.8550 h1        1 MOL      0.146727
     76 N7         -6.1170   -2.0510   -0.0180 n         1 MOL     -0.040244
     77 C25        -5.7420   -3.4910    0.0890 c3        1 MOL      0.233116
     78 C26        -5.0970   -3.8660    1.4090 c         1 MOL      0.194208
     79 O14        -4.9470   -5.0670    1.7470 o         1 MOL     -0.479268
     80 C27        -6.8040   -4.5130   -0.3390 c3        1 MOL      0.001794
     81 C28        -7.4240   -4.1670   -1.7330 c3        1 MOL     -0.201844
     82 C29        -8.3200   -5.2420   -2.3830 c         1 MOL      0.695690
     83 N8         -9.0000   -4.9650   -3.4800 n         1 MOL     -0.843826
     84 O15        -8.4140   -6.3310   -1.9230 o         1 MOL     -0.585187
     85 H33        -5.6770   -1.6030   -0.8000 hn        1 MOL     -0.068766
     86 H34        -4.9670   -3.6210   -0.6620 h1        1 MOL      0.064270
     87 H35        -7.6700   -4.4850    0.3260 hc        1 MOL      0.013795
     88 H36        -6.3430   -5.5000   -0.2670 hc        1 MOL      0.013795
     89 H37        -6.7030   -3.7850   -2.4470 hc        1 MOL      0.078893
     90 H38        -8.0820   -3.2950   -1.6930 hc        1 MOL      0.078893
     91 H39        -8.8150   -4.0960   -3.9560 hn        1 MOL      0.357821
     92 H40        -9.6310   -5.6450   -3.8760 hn        1 MOL      0.357821
     93 N9         -4.7100   -2.8830    2.2700 n         1 MOL     -0.057463
     94 C30        -4.2290   -3.1390    3.6450 c3        1 MOL     -0.088822
     95 C31        -2.6730   -3.1750    3.6190 c         1 MOL      0.437598
     96 O16        -2.1260   -3.8100    4.5390 o         1 MOL     -0.545443
     97 C32        -4.6940   -2.0640    4.6530 c3        1 MOL      0.278691
     98 C33        -4.4960   -0.6470    4.0100 c3        1 MOL     -0.299758
     99 C34        -6.1530   -2.1530    5.0620 c3        1 MOL     -0.299758
    100 H41        -4.6120   -1.9480    1.8930 hn        1 MOL      0.113504
    101 H42        -4.6100   -4.1060    3.9740 h1        1 MOL      0.100398
    102 H43        -4.0810   -2.0920    5.5560 hc        1 MOL     -0.016592
    103 H44        -4.7560    0.1430    4.7200 hc        1 MOL      0.061665
    104 H45        -3.4170   -0.5570    3.8480 hc        1 MOL      0.061665
    105 H46        -5.1410   -0.4720    3.1520 hc        1 MOL      0.061665
    106 H47        -6.2780   -1.3700    5.8110 hc        1 MOL      0.061665
    107 H48        -6.7530   -1.9940    4.1690 hc        1 MOL      0.061665
    108 H49        -6.3570   -3.1480    5.4590 hc        1 MOL      0.061665
    109 N10        -2.0250   -2.4850    2.6810 n         1 MOL     -0.367027
    110 C35        -0.5740   -2.3760    2.6100 c3        1 MOL      0.386048
    111 C36         0.0310   -3.0170    1.2800 c         1 MOL      0.438531
    112 O17        -0.7200   -3.3940    0.3530 o         1 MOL     -0.491361
    113 C37        -0.1860   -0.9050    2.7260 c3        1 MOL     -0.488190
    114 C38        -0.5080   -0.3610    4.1190 c         1 MOL      0.808746
    115 N11        -1.0300    0.8670    4.2090 n         1 MOL     -0.870698
    116 O18        -0.1080   -0.9540    5.1510 o         1 MOL     -0.586431
    117 H50        -2.5100   -2.1060    1.8790 hn        1 MOL      0.222624
    118 H51        -0.0520   -2.9090    3.4120 h1        1 MOL      0.007749
    119 H52        -0.7990   -0.3780    1.9990 hc        1 MOL      0.130650
    120 H53         0.9000   -0.7830    2.6920 hc        1 MOL      0.130650
    121 H54        -1.3690    1.3120    3.3670 hn        1 MOL      0.373084
    122 H55        -1.1500    1.2240    5.1510 hn        1 MOL      0.373084
    123 N12         1.3580   -3.0670    1.2360 n         1 MOL     -0.596788
    124 C39         2.1670   -3.8080    0.2060 c3        1 MOL      0.430989
    125 C40         3.5660   -3.9020    0.6230 c         1 MOL      0.352341
    126 O19         4.1110   -3.1830    1.4870 o         1 MOL     -0.553353
    127 C41         2.0790   -3.1630   -1.2000 c3        1 MOL     -0.128808
    128 C42         2.1690   -4.1010   -2.3620 ca        1 MOL      0.057426
    129 C43         3.2710   -4.0370   -3.1340 ca        1 MOL     -0.129124
    130 C44         1.1270   -4.9640   -2.6840 ca        1 MOL     -0.129124
    131 C45         3.3620   -4.8330   -4.2810 ca        1 MOL     -0.227193
    132 C46         1.2230   -5.7920   -3.8460 ca        1 MOL     -0.227193
    133 C47         2.3360   -5.7210   -4.6470 ca        1 MOL      0.273926
    134 O20         2.3580   -6.3930   -5.8230 oh        1 MOL     -0.451699
    135 H56         1.9140   -2.5190    1.8780 hn        1 MOL      0.286070
    136 H57         1.7400   -4.8080    0.1370 h1        1 MOL      0.016562
    137 H58         2.8300   -2.3720   -1.2550 hc        1 MOL      0.066453
    138 H59         1.1160   -2.6580   -1.2490 hc        1 MOL      0.066453
    139 H60         4.1870   -3.5140   -2.8930 ha        1 MOL      0.144273
    140 H61         0.2280   -5.0290   -2.0840 ha        1 MOL      0.144273
    141 H62         4.3590   -4.8490   -4.6960 ha        1 MOL      0.136473
    142 H63         0.4670   -6.5290   -4.0890 ha        1 MOL      0.136473
    143 H64         3.2040   -6.2900   -6.2760 ho        1 MOL      0.326449
    144 N13         4.4300   -4.6400   -0.0970 n         1 MOL     -0.404744
    145 C48         5.8640   -4.5830    0.1320 c3        1 MOL      0.200995
    146 C49         6.6640   -3.7970   -0.9440 c         1 MOL      0.649632
    147 O21         6.9420   -4.3090   -2.0130 o         1 MOL     -0.627752
    148 C50         6.3890   -6.0150    0.2390 c3        1 MOL     -0.005261
    149 C51         5.9120   -6.7730    1.5690 c3        1 MOL     -0.100323
    150 C52         6.6400   -8.0590    1.8080 c         1 MOL      0.692392
    151 O22         7.2810   -8.6550    0.9030 o         1 MOL     -0.692952
    152 O23         6.4670   -8.6270    2.9480 o         1 MOL     -0.692952
    153 H65         4.1190   -5.0860   -0.9510 hn        1 MOL      0.182934
    154 H66         6.0520   -4.0600    1.0710 h1        1 MOL     -0.007300
    155 H67         7.4730   -5.9510    0.2320 hc        1 MOL      0.013529
    156 H68         6.0390   -6.5600   -0.6390 hc        1 MOL      0.013529
    157 H69         4.8630   -7.0650    1.5410 hc        1 MOL      0.019106
    158 H70         6.1710   -6.1810    2.4400 hc        1 MOL      0.019106
    159 N14         7.1200   -2.5420   -0.8090 n         1 MOL     -0.547865
    160 C53         6.8430   -1.5980    0.2520 c3        1 MOL     -0.322719
    161 C54         7.5070   -1.9100    1.6150 c         1 MOL      0.766042
    162 O24         8.6920   -2.2020    1.6660 o         1 MOL     -0.607263
    163 C55         7.2910   -0.1560   -0.2280 c3        1 MOL     -0.372496
    164 C56         6.9980    0.8740    0.7740 c3        1 MOL     -0.358970
    165 C57         6.9900    2.3040    0.3110 c         1 MOL      1.125797
    166 O25         6.1480    2.6230   -0.5720 o         1 MOL     -0.902304
    167 O26         7.7160    3.1990    0.8230 o         1 MOL     -0.902304
    168 H71         7.7520   -2.2030   -1.5180 hn        1 MOL      0.330084
    169 H72         5.7650   -1.5190    0.4050 h1        1 MOL      0.197479
    170 H73         6.5770    0.1030   -1.0030 hc        1 MOL      0.230838
    171 H74         8.3430   -0.0650   -0.5180 hc        1 MOL      0.230838
    172 H75         7.7320    0.7670    1.5700 hc        1 MOL      0.077884
    173 H76         5.9830    0.7790    1.1640 hc        1 MOL      0.077884
    174 N15         6.7890   -1.8360    2.6940 n         1 MOL     -0.162628
    175 C58         7.2470   -2.0500    4.0770 c3        1 MOL     -0.236198
    176 H77         7.5580   -3.0870    4.2000 h1        1 MOL      0.090639
    177 H78         8.0900   -1.3910    4.2860 h1        1 MOL      0.090639
    178 H79         6.4330   -1.8310    4.7680 h1        1 MOL      0.090639
    179 H80         5.8940   -1.3680    2.6310 hn        1 MOL      0.200160
    180 Ca1         7.1190    4.8970   -1.1960 Ca        1 MOL      1.571800
    181 O27         9.1550    3.0150   -2.1640 oh        1 MOL     -0.809684
    182 H81         9.6500    2.2080   -2.3040 ho        1 MOL      0.369363
    183 H82         9.7920    3.7160   -2.3250 ho        1 MOL      0.369363
    184 O28         6.9460    4.8940   -3.8310 oh        1 MOL     -0.809684
    185 H83         7.4710    5.3690   -4.4670 ho        1 MOL      0.369363
    186 H84         6.0370    4.9890   -4.1320 ho        1 MOL      0.369363
    187 O29         6.4660    7.3680   -2.0630 oh        1 MOL     -0.809684
    188 H85         6.7560    8.2550   -2.2450 ho        1 MOL      0.369363
    189 H86         5.5240    7.3650   -2.2580 ho        1 MOL      0.369363
@<TRIPOS>BOND
     1    1    2 1   
     2    1    4 1   
     3    1    5 1   
     4    1    6 1   
     5    2    3 2   
     6    2    7 1   
     7    7    8 1   
     8    7   15 1   
     9    8    9 1   
    10    8   11 1   
    11    8   16 1   
    12    9   10 2   
    13    9   19 1   
    14   11   12 1   
    15   11   17 1   
    16   11   18 1   
    17   12   13 1   
    18   12   14 1   
    19   19   20 1   
    20   19   27 1   
    21   20   21 1   
    22   20   23 1   
    23   20   28 1   
    24   21   22 2   
    25   21   38 1   
    26   23   24 1   
    27   23   25 1   
    28   23   29 1   
    29   24   26 1   
    30   24   30 1   
    31   24   31 1   
    32   25   32 1   
    33   25   33 1   
    34   25   34 1   
    35   26   35 1   
    36   26   36 1   
    37   26   37 1   
    38   38   39 1   
    39   38   46 1   
    40   39   40 1   
    41   39   42 1   
    42   39   47 1   
    43   40   41 2   
    44   40   50 1   
    45   42   43 1   
    46   42   48 1   
    47   42   49 1   
    48   43   44 1   
    49   43   45 1   
    50   50   51 1   
    51   50   54 1   
    52   51   52 1   
    53   51   55 1   
    54   51   56 1   
    55   52   53 2   
    56   52   57 1   
    57   57   58 1   
    58   57   65 1   
    59   58   59 1   
    60   58   61 1   
    61   58   66 1   
    62   59   60 2   
    63   59   69 1   
    64   61   62 1   
    65   61   67 1   
    66   61   68 1   
    67   62   63 1   
    68   62   64 1   
    69   69   70 1   
    70   69   73 1   
    71   70   71 1   
    72   70   74 1   
    73   70   75 1   
    74   71   72 2   
    75   71   76 1   
    76   76   77 1   
    77   76   85 1   
    78   77   78 1   
    79   77   80 1   
    80   77   86 1   
    81   78   79 2   
    82   78   93 1   
    83   80   81 1   
    84   80   87 1   
    85   80   88 1   
    86   81   82 1   
    87   81   89 1   
    88   81   90 1   
    89   82   83 1   
    90   82   84 2   
    91   83   91 1   
    92   83   92 1   
    93   93   94 1   
    94   93  100 1   
    95   94   95 1   
    96   94   97 1   
    97   94  101 1   
    98   95   96 2   
    99   95  109 1   
   100   97   98 1   
   101   97   99 1   
   102   97  102 1   
   103   98  103 1   
   104   98  104 1   
   105   98  105 1   
   106   99  106 1   
   107   99  107 1   
   108   99  108 1   
   109  109  110 1   
   110  109  117 1   
   111  110  111 1   
   112  110  113 1   
   113  110  118 1   
   114  111  112 2   
   115  111  123 1   
   116  113  114 1   
   117  113  119 1   
   118  113  120 1   
   119  114  115 1   
   120  114  116 2   
   121  115  121 1   
   122  115  122 1   
   123  123  124 1   
   124  123  135 1   
   125  124  125 1   
   126  124  127 1   
   127  124  136 1   
   128  125  126 2   
   129  125  144 1   
   130  127  128 1   
   131  127  137 1   
   132  127  138 1   
   133  128  129 ar  
   134  128  130 ar  
   135  129  131 ar  
   136  129  139 1   
   137  130  132 ar  
   138  130  140 1   
   139  131  133 ar  
   140  131  141 1   
   141  132  133 ar  
   142  132  142 1   
   143  133  134 1   
   144  134  143 1   
   145  144  145 1   
   146  144  153 1   
   147  145  146 1   
   148  145  148 1   
   149  145  154 1   
   150  146  147 2   
   151  146  159 1   
   152  148  149 1   
   153  148  155 1   
   154  148  156 1   
   155  149  150 1   
   156  149  157 1   
   157  149  158 1   
   158  150  151 1   
   159  150  152 1   
   160  159  160 1   
   161  159  168 1   
   162  160  161 1   
   163  160  163 1   
   164  160  169 1   
   165  161  162 2   
   166  161  174 1   
   167  163  164 1   
   168  163  170 1   
   169  163  171 1   
   170  164  165 1   
   171  164  172 1   
   172  164  173 1   
   173  165  166 1   
   174  165  167 1   
   175  174  175 1   
   176  174  179 1   
   177  175  176 1   
   178  175  177 1   
   179  175  178 1   
   180  181  182 1   
   181  181  183 1   
   182  184  185 1   
   183  184  186 1   
   184  187  188 1   
   185  187  189 1   
@<TRIPOS>SUBSTRUCTURE
     1 MOL         1 TEMP              0 ****  ****    0 ROOT
