@<TRIPOS>MOLECULE
MOL
  195   189     1     0     0
SMALL
resp


@<TRIPOS>ATOM
      1 C1         -5.6170   -3.4260    5.1950 c3        1 MOL     -0.299477
      2 C2         -5.2570   -2.7040    3.8910 c         1 MOL      0.711780
      3 O1         -4.9100   -3.3660    2.9090 o         1 MOL     -0.592227
      4 H1         -4.7050   -3.7730    5.6810 hc        1 MOL      0.073760
      5 H2         -6.1420   -2.7390    5.8590 hc        1 MOL      0.073760
      6 H3         -6.2570   -4.2800    4.9740 hc        1 MOL      0.073760
      7 N1         -5.2940   -1.3750    3.8680 n         1 MOL     -0.393751
      8 C3         -4.9440   -0.5120    2.7770 c3        1 MOL      0.357916
      9 C4         -3.5030   -0.5150    2.3110 c         1 MOL      0.075043
     10 O2         -3.0910    0.1380    1.3130 o         1 MOL     -0.469573
     11 C5         -5.4760    0.8840    3.0420 c3        1 MOL     -0.084176
     12 C6         -6.8740    0.9400    3.4280 c         1 MOL      0.634595
     13 O3         -7.2860    0.5760    4.5510 o         1 MOL     -0.678829
     14 O4         -7.6690    1.2720    2.4990 o         1 MOL     -0.678829
     15 H4         -5.6140   -0.9350    4.7210 hn        1 MOL      0.196841
     16 H5         -5.4790   -0.8530    1.8830 h1        1 MOL      0.011193
     17 H6         -5.2570    1.4750    2.1590 hc        1 MOL     -0.045108
     18 H7         -4.8500    1.3100    3.8230 hc        1 MOL     -0.045108
     19 N2         -2.6020   -1.1720    3.0510 n         1 MOL     -0.363335
     20 C7         -1.1210   -1.0430    2.9580 c3        1 MOL      0.496579
     21 C8         -0.5060   -2.3270    2.2940 c         1 MOL      0.244556
     22 O5         -1.0780   -3.3900    2.5620 o         1 MOL     -0.458374
     23 C9         -0.5940   -0.8240    4.4460 c3        1 MOL     -0.344253
     24 C10        -0.8620    0.6260    4.8760 c3        1 MOL      0.313742
     25 C11         0.1300    0.9750    5.9730 c3        1 MOL     -0.182517
     26 C12         0.0760    2.5250    6.2450 c3        1 MOL      0.209773
     27 N3          0.9600    3.0440    7.3100 n4        1 MOL     -0.428288
     28 H8         -3.0440   -1.7370    3.7710 hn        1 MOL      0.201735
     29 H9         -0.9540   -0.1650    2.3410 h1        1 MOL      0.037314
     30 H10         0.4690   -1.0320    4.4040 hc        1 MOL      0.088272
     31 H11        -1.0990   -1.6250    4.9780 hc        1 MOL      0.088272
     32 H12        -1.8480    0.7150    5.3450 hc        1 MOL     -0.054406
     33 H13        -0.7820    1.2900    4.0220 hc        1 MOL     -0.054406
     34 H14         1.1680    0.7540    5.7170 hc        1 MOL      0.046396
     35 H15        -0.1930    0.4440    6.8750 hc        1 MOL      0.046396
     36 H16        -0.9410    2.8430    6.4850 hx        1 MOL      0.037313
     37 H17         0.2560    3.0520    5.3040 hx        1 MOL      0.037313
     38 H18         1.8990    2.7340    7.1090 hn        1 MOL      0.333522
     39 H19         0.9340    4.0320    7.5090 hn        1 MOL      0.333522
     40 H20         0.6570    2.6370    8.1780 hn        1 MOL      0.333522
     41 N4          0.6500   -2.3530    1.5720 n         1 MOL     -0.259872
     42 C13         1.5210   -1.2350    1.1050 c3        1 MOL     -0.062288
     43 C14         2.1320   -0.2480    2.1410 c         1 MOL      0.545853
     44 O6          1.3940    0.5960    2.6480 o         1 MOL     -0.565942
     45 C15         1.0410   -0.6290   -0.2090 c3        1 MOL     -0.232630
     46 C16         0.8580   -1.6650   -1.3550 c         1 MOL      0.593375
     47 O7          1.6040   -2.6630   -1.3660 o         1 MOL     -0.722125
     48 O8         -0.0530   -1.6090   -2.1920 o         1 MOL     -0.722125
     49 H21         0.9620   -3.2870    1.3220 hn        1 MOL      0.204726
     50 H22         2.4090   -1.7510    0.7470 h1        1 MOL      0.051813
     51 H23         1.8020    0.0810   -0.5260 hc        1 MOL      0.152544
     52 H24         0.0850   -0.1340   -0.0590 hc        1 MOL      0.152544
     53 N5          3.4470   -0.1710    2.4320 n         1 MOL     -0.442784
     54 C17         4.5120   -1.1520    2.0510 c3        1 MOL     -0.060228
     55 C18         5.7190   -1.0410    2.9920 c         1 MOL      0.638846
     56 O9          5.7220   -0.2640    3.8980 o         1 MOL     -0.577548
     57 H25         3.8020    0.5140    3.0960 hn        1 MOL      0.300672
     58 H26         4.8570   -1.0080    1.0210 h1        1 MOL      0.091439
     59 H27         4.0890   -2.1550    2.1020 h1        1 MOL      0.091439
     60 N6          6.7490   -1.8130    2.8270 n         1 MOL     -0.499079
     61 C19         6.9890   -2.7820    1.7670 c3        1 MOL      0.043856
     62 C20         7.4940   -2.1530    0.4570 c         1 MOL      0.397415
     63 O10         8.2380   -1.2150    0.4470 o         1 MOL     -0.425703
     64 C21         7.9690   -3.8500    2.3540 c3        1 MOL     -0.030791
     65 C22         9.3160   -3.3340    2.6220 c         1 MOL      0.733465
     66 O11         9.5090   -2.8070    3.7080 o         1 MOL     -0.689556
     67 O12        10.1360   -3.5200    1.7220 o         1 MOL     -0.689556
     68 H28         7.5180   -1.6290    3.4480 hn        1 MOL      0.316484
     69 H29         6.0640   -3.2670    1.4720 h1        1 MOL     -0.017940
     70 H30         8.0260   -4.6960    1.6680 hc        1 MOL     -0.021742
     71 H31         7.5490   -4.2140    3.2870 hc        1 MOL     -0.021742
     72 N7          7.2420   -2.7720   -0.7110 n         1 MOL     -0.178187
     73 C23         7.7660   -2.3660   -1.9860 c3        1 MOL     -0.344639
     74 C24         7.0880   -1.1640   -2.6020 c         1 MOL      0.612586
     75 O13         7.6220   -0.5930   -3.5090 o         1 MOL     -0.569593
     76 H32         6.7290   -3.6450   -0.6290 hn        1 MOL      0.212590
     77 H33         7.4870   -3.1830   -2.6530 h1        1 MOL      0.161367
     78 H34         8.8470   -2.2500   -1.9870 h1        1 MOL      0.161367
     79 N8          5.8790   -0.7410   -2.1990 n         1 MOL     -0.456585
     80 C25         5.1110    0.5110   -2.7020 c3        1 MOL      0.363552
     81 C26         4.9430    1.4190   -1.5570 c         1 MOL      0.386538
     82 O14         4.5740    1.0200   -0.4440 o         1 MOL     -0.443245
     83 C27         3.7810    0.1240   -3.3880 c3        1 MOL      0.482682
     84 C28         3.9970   -0.6520   -4.6780 c3        1 MOL     -0.778973
     85 O15         3.0690    1.3140   -3.6760 oh        1 MOL     -0.667047
     86 H35         5.4740   -1.2800   -1.4540 hn        1 MOL      0.116236
     87 H36         5.7510    0.9730   -3.4480 h1        1 MOL      0.023322
     88 H37         3.2270   -0.5290   -2.7170 h1        1 MOL     -0.006968
     89 H38         2.1730    0.9820   -3.7160 ho        1 MOL      0.446453
     90 H39         4.8360   -1.3300   -4.5600 hc        1 MOL      0.185461
     91 H40         3.1100   -1.1900   -5.0230 hc        1 MOL      0.185461
     92 H41         4.3770   -0.0440   -5.4970 hc        1 MOL      0.185461
     93 N9          5.0770    2.7080   -1.9430 n         1 MOL     -0.538439
     94 C29         5.0520    3.8300   -0.9060 c3        1 MOL      0.055713
     95 C30         3.6130    4.4060   -0.7890 c         1 MOL      0.520927
     96 O16         3.4500    5.3390   -0.0240 o         1 MOL     -0.550624
     97 C31         6.2690    4.8140   -1.1790 c3        1 MOL      0.172595
     98 C32         6.5360    6.0350   -0.2510 c3        1 MOL      0.101865
     99 C33         6.3250    5.4000   -2.5740 c3        1 MOL     -0.372647
    100 C34         6.6360    5.5520    1.1980 c3        1 MOL     -0.281801
    101 H42         5.3480    3.0150   -2.8690 hn        1 MOL      0.331566
    102 H43         5.2460    3.4110    0.0840 h1        1 MOL      0.095945
    103 H44         7.1520    4.1770   -1.1780 hc        1 MOL      0.013696
    104 H45         5.7240    6.7550   -0.3290 hc        1 MOL      0.014276
    105 H46         7.4130    6.6050   -0.5750 hc        1 MOL      0.014276
    106 H47         7.3190    5.8080   -2.7440 hc        1 MOL      0.076199
    107 H48         6.0990    4.6060   -3.2930 hc        1 MOL      0.076199
    108 H49         5.6310    6.2420   -2.5400 hc        1 MOL      0.076199
    109 H50         6.6460    6.4360    1.8400 hc        1 MOL      0.060125
    110 H51         5.8180    4.8680    1.4640 hc        1 MOL      0.060125
    111 H52         7.5860    5.0280    1.2850 hc        1 MOL      0.060125
    112 N10         2.5920    3.8190   -1.4430 n         1 MOL     -0.340661
    113 C35         1.2620    4.3990   -1.4330 c3        1 MOL      0.078582
    114 C36         0.2230    3.3590   -0.9250 c         1 MOL      0.507730
    115 O17         0.1640    2.2680   -1.4730 o         1 MOL     -0.515255
    116 C37         0.8300    4.9360   -2.8120 c3        1 MOL      0.369467
    117 C38         1.5570    6.1880   -3.2150 c3        1 MOL     -0.340188
    118 O18        -0.5490    5.3190   -2.7510 oh        1 MOL     -0.648847
    119 H53         2.6910    2.8970   -1.8430 hn        1 MOL      0.123546
    120 H54         1.2490    5.2070   -0.7040 h1        1 MOL      0.069636
    121 H55         0.9360    4.0950   -3.5120 h1        1 MOL      0.005099
    122 H56        -0.8310    5.4430   -3.6620 ho        1 MOL      0.404307
    123 H57         1.4550    7.0130   -2.5220 hc        1 MOL      0.076277
    124 H58         2.6180    5.9670   -3.3340 hc        1 MOL      0.076277
    125 H59         1.2590    6.3310   -4.2600 hc        1 MOL      0.076277
    126 N11        -0.6560    3.6920    0.0020 n         1 MOL     -0.430681
    127 C39        -1.8300    2.8620    0.3060 c3        1 MOL      0.137153
    128 C40        -2.8600    2.9380   -0.8300 c         1 MOL      0.561388
    129 O19        -2.8890    3.7640   -1.7260 o         1 MOL     -0.515877
    130 C41        -2.4800    3.2830    1.5730 c3        1 MOL      0.200122
    131 C42        -3.0920    4.6710    1.6030 c3        1 MOL     -0.302738
    132 O20        -1.4980    3.3230    2.6450 oh        1 MOL     -0.566678
    133 H60        -0.5160    4.4300    0.6750 hn        1 MOL      0.277454
    134 H61        -1.5730    1.8050    0.3770 h1        1 MOL      0.043007
    135 H62        -3.2760    2.5890    1.8450 h1        1 MOL      0.137132
    136 H63        -1.9590    3.4080    3.4800 ho        1 MOL      0.342465
    137 H64        -3.8240    4.8270    0.8140 hc        1 MOL      0.074887
    138 H65        -3.5120    4.8860    2.5890 hc        1 MOL      0.074887
    139 H66        -2.2950    5.4130    1.4790 hc        1 MOL      0.074887
    140 N12        -3.8380    2.0120   -0.7380 n         1 MOL     -0.496365
    141 C43        -4.9440    1.7970   -1.7200 c3        1 MOL      0.010924
    142 C44        -5.2580    0.3350   -1.9190 c         1 MOL      0.735836
    143 O21        -5.7720    0.0340   -2.9870 o         1 MOL     -0.643501
    144 C45        -6.1630    2.6780   -1.3530 c3        1 MOL     -0.069904
    145 C46        -7.2940    2.6160   -2.3470 c3        1 MOL     -0.154759
    146 C47        -8.3100    3.7430   -2.1120 c3        1 MOL     -0.044049
    147 C48        -9.4530    3.5380   -3.1260 c3        1 MOL      0.157053
    148 N13       -10.5070    4.5980   -2.8950 n4        1 MOL     -0.441491
    149 H67        -3.7210    1.3630    0.0250 hn        1 MOL      0.184547
    150 H68        -4.6020    2.1770   -2.6810 h1        1 MOL      0.070219
    151 H69        -5.8550    3.7210   -1.2840 hc        1 MOL      0.063377
    152 H70        -6.5720    2.4160   -0.3790 hc        1 MOL      0.063377
    153 H71        -7.7610    1.6640   -2.1060 hc        1 MOL      0.082054
    154 H72        -6.9930    2.5650   -3.3860 hc        1 MOL      0.082054
    155 H73        -7.8450    4.7210   -2.2150 hc        1 MOL      0.042192
    156 H74        -8.8000    3.7440   -1.1390 hc        1 MOL      0.042192
    157 H75        -9.9100    2.5480   -3.0660 hx        1 MOL      0.053636
    158 H76        -9.0750    3.5850   -4.1480 hx        1 MOL      0.053636
    159 H77       -11.2420    4.5760   -3.5860 hn        1 MOL      0.327726
    160 H78       -10.9810    4.4450   -2.0220 hn        1 MOL      0.327726
    161 H79       -10.0050    5.4790   -2.8970 hn        1 MOL      0.327726
    162 N14        -4.9570   -0.5210   -0.9100 n         1 MOL     -0.387890
    163 C49        -4.9570   -1.9920   -1.0980 c3        1 MOL     -0.463242
    164 C50        -6.3930   -2.4910   -0.8930 c         1 MOL      0.522520
    165 O22        -7.0280   -2.1310    0.0980 o         1 MOL     -0.475208
    166 C51        -3.8870   -2.6980   -0.2220 c3        1 MOL      0.646746
    167 C52        -3.8730   -4.2450   -0.3570 c3        1 MOL     -0.521596
    168 C53        -3.5340   -4.6860   -1.7960 c         1 MOL      0.697399
    169 O23        -4.5370   -4.8870   -2.5140 o         1 MOL     -0.710599
    170 O24        -2.3350   -4.8180   -2.1610 o         1 MOL     -0.710599
    171 H80        -4.4410   -0.1640   -0.1140 hn        1 MOL      0.298902
    172 H81        -4.6170   -2.2530   -2.1020 h1        1 MOL      0.212559
    173 H82        -4.0620   -2.3800    0.8010 hc        1 MOL     -0.094978
    174 H83        -2.9170   -2.3230   -0.5750 hc        1 MOL     -0.094978
    175 H84        -4.7860   -4.6890    0.0440 hc        1 MOL      0.119379
    176 H85        -3.0530   -4.6360    0.2510 hc        1 MOL      0.119379
    177 N15        -6.8470   -3.4070   -1.7480 n         1 MOL     -0.394858
    178 C54        -8.2090   -3.9730   -1.7040 c3        1 MOL      0.092994
    179 H86        -8.6280   -3.9880   -2.7110 h1        1 MOL      0.019196
    180 H87        -8.1680   -4.9890   -1.3130 h1        1 MOL      0.019196
    181 H88        -8.8370   -3.3590   -1.0590 h1        1 MOL      0.019196
    182 H89        -6.2060   -3.7920   -2.4280 hn        1 MOL      0.349070
    183 Ca1         0.1490   -4.2250   -2.7820 Ca        1 MOL      1.704125
    184 O25        -0.1990   -6.3030   -4.5860 oh        1 MOL     -0.807041
    185 H90         0.4240   -7.0150   -4.3900 ho        1 MOL      0.402049
    186 H91        -1.0560   -6.6950   -4.4120 ho        1 MOL      0.402049
    187 O26        -1.6150   -3.1350   -4.7370 oh        1 MOL     -0.807041
    188 H92        -1.3900   -2.8310   -5.6080 ho        1 MOL      0.402049
    189 H93        -2.4430   -2.7050   -4.5350 ho        1 MOL      0.402049
    190 O27        -0.7970   -6.9460   -1.8840 oh        1 MOL     -0.807041
    191 H94        -1.0850   -7.8460   -1.7430 ho        1 MOL      0.402049
    192 H95        -1.6110   -6.4330   -1.8700 ho        1 MOL      0.402049
    193 O28         1.5310   -3.2300   -4.8860 oh        1 MOL     -0.807041
    194 H96         1.3570   -2.7950   -5.7320 ho        1 MOL      0.402049
    195 H97         2.4290   -3.5540   -4.9740 ho        1 MOL      0.402049
@<TRIPOS>BOND
     1    1    2 1   
     2    1    4 1   
     3    1    5 1   
     4    1    6 1   
     5    2    3 2   
     6    2    7 1   
     7    7    8 1   
     8    7   15 1   
     9    8    9 1   
    10    8   11 1   
    11    8   16 1   
    12    9   10 2   
    13    9   19 1   
    14   11   12 1   
    15   11   17 1   
    16   11   18 1   
    17   12   13 1   
    18   12   14 1   
    19   19   20 1   
    20   19   28 1   
    21   20   21 1   
    22   20   23 1   
    23   20   29 1   
    24   21   22 2   
    25   21   41 1   
    26   23   24 1   
    27   23   30 1   
    28   23   31 1   
    29   24   25 1   
    30   24   32 1   
    31   24   33 1   
    32   25   26 1   
    33   25   34 1   
    34   25   35 1   
    35   26   27 1   
    36   26   36 1   
    37   26   37 1   
    38   27   38 1   
    39   27   39 1   
    40   27   40 1   
    41   41   42 1   
    42   41   49 1   
    43   42   43 1   
    44   42   45 1   
    45   42   50 1   
    46   43   44 2   
    47   43   53 1   
    48   45   46 1   
    49   45   51 1   
    50   45   52 1   
    51   46   47 1   
    52   46   48 1   
    53   53   54 1   
    54   53   57 1   
    55   54   55 1   
    56   54   58 1   
    57   54   59 1   
    58   55   56 2   
    59   55   60 1   
    60   60   61 1   
    61   60   68 1   
    62   61   62 1   
    63   61   64 1   
    64   61   69 1   
    65   62   63 2   
    66   62   72 1   
    67   64   65 1   
    68   64   70 1   
    69   64   71 1   
    70   65   66 1   
    71   65   67 1   
    72   72   73 1   
    73   72   76 1   
    74   73   74 1   
    75   73   77 1   
    76   73   78 1   
    77   74   75 2   
    78   74   79 1   
    79   79   80 1   
    80   79   86 1   
    81   80   81 1   
    82   80   83 1   
    83   80   87 1   
    84   81   82 2   
    85   81   93 1   
    86   83   84 1   
    87   83   85 1   
    88   83   88 1   
    89   84   90 1   
    90   84   91 1   
    91   84   92 1   
    92   85   89 1   
    93   93   94 1   
    94   93  101 1   
    95   94   95 1   
    96   94   97 1   
    97   94  102 1   
    98   95   96 2   
    99   95  112 1   
   100   97   98 1   
   101   97   99 1   
   102   97  103 1   
   103   98  100 1   
   104   98  104 1   
   105   98  105 1   
   106   99  106 1   
   107   99  107 1   
   108   99  108 1   
   109  100  109 1   
   110  100  110 1   
   111  100  111 1   
   112  112  113 1   
   113  112  119 1   
   114  113  114 1   
   115  113  116 1   
   116  113  120 1   
   117  114  115 2   
   118  114  126 1   
   119  116  117 1   
   120  116  118 1   
   121  116  121 1   
   122  117  123 1   
   123  117  124 1   
   124  117  125 1   
   125  118  122 1   
   126  126  127 1   
   127  126  133 1   
   128  127  128 1   
   129  127  130 1   
   130  127  134 1   
   131  128  129 2   
   132  128  140 1   
   133  130  131 1   
   134  130  132 1   
   135  130  135 1   
   136  131  137 1   
   137  131  138 1   
   138  131  139 1   
   139  132  136 1   
   140  140  141 1   
   141  140  149 1   
   142  141  142 1   
   143  141  144 1   
   144  141  150 1   
   145  142  143 2   
   146  142  162 1   
   147  144  145 1   
   148  144  151 1   
   149  144  152 1   
   150  145  146 1   
   151  145  153 1   
   152  145  154 1   
   153  146  147 1   
   154  146  155 1   
   155  146  156 1   
   156  147  148 1   
   157  147  157 1   
   158  147  158 1   
   159  148  159 1   
   160  148  160 1   
   161  148  161 1   
   162  162  163 1   
   163  162  171 1   
   164  163  164 1   
   165  163  166 1   
   166  163  172 1   
   167  164  165 2   
   168  164  177 1   
   169  166  167 1   
   170  166  173 1   
   171  166  174 1   
   172  167  168 1   
   173  167  175 1   
   174  167  176 1   
   175  168  169 1   
   176  168  170 1   
   177  177  178 1   
   178  177  182 1   
   179  178  179 1   
   180  178  180 1   
   181  178  181 1   
   182  184  185 1   
   183  184  186 1   
   184  187  188 1   
   185  187  189 1   
   186  190  191 1   
   187  190  192 1   
   188  193  194 1   
   189  193  195 1   
@<TRIPOS>SUBSTRUCTURE
     1 MOL         1 TEMP              0 ****  ****    0 ROOT
