@<TRIPOS>MOLECULE
MOL
  189   185     1     0     0
SMALL
resp


@<TRIPOS>ATOM
      1 C1          4.1820   -2.3130   -2.7590 c3        1 MOL     -0.411245
      2 C2          3.2200   -2.8890   -1.6760 c         1 MOL      0.781903
      3 O1          2.2630   -2.2750   -1.1630 o         1 MOL     -0.503354
      4 H1          4.7350   -3.1290   -3.2220 hc        1 MOL      0.088792
      5 H2          3.6020   -1.7900   -3.5190 hc        1 MOL      0.088792
      6 H3          4.8820   -1.6190   -2.2920 hc        1 MOL      0.088792
      7 N1          3.5500   -4.1210   -1.2600 n         1 MOL     -0.419116
      8 C3          2.9210   -5.0040   -0.1660 c3        1 MOL     -0.064336
      9 C4          1.3900   -5.1220   -0.4040 c         1 MOL      0.748653
     10 O2          0.5580   -4.8250    0.4630 o         1 MOL     -0.549011
     11 C5          3.3200   -4.5780    1.2650 c3        1 MOL     -0.552001
     12 C6          4.7950   -4.2120    1.3780 c         1 MOL      1.063229
     13 O3          5.1040   -3.0580    1.0730 o         1 MOL     -0.865908
     14 O4          5.6290   -5.0420    1.7620 o         1 MOL     -0.865908
     15 H4          4.4590   -4.3770   -1.6150 hn        1 MOL      0.188692
     16 H5          3.3460   -6.0020   -0.3100 h1        1 MOL      0.091328
     17 H6          3.0900   -5.4250    1.9180 hc        1 MOL      0.176009
     18 H7          2.7220   -3.7150    1.5720 hc        1 MOL      0.176009
     19 N2          0.9710   -5.3310   -1.6890 n         1 MOL     -0.775564
     20 C7         -0.4030   -5.1080   -2.0860 c3        1 MOL      0.089847
     21 C8         -1.2760   -6.3900   -1.8800 c         1 MOL      0.661400
     22 O5         -0.9330   -7.5130   -2.2440 o         1 MOL     -0.607425
     23 C9         -0.5830   -4.4820   -3.4530 c3        1 MOL     -0.013741
     24 C10         0.4220   -4.9580   -4.5100 c3        1 MOL      0.237528
     25 C11        -0.5490   -2.9520   -3.4640 c3        1 MOL     -0.333339
     26 C12         0.2740   -6.4080   -4.9750 c3        1 MOL     -0.290479
     27 H8          1.6650   -5.5100   -2.3990 hn        1 MOL      0.339918
     28 H9         -0.7820   -4.4560   -1.3010 h1        1 MOL      0.191097
     29 H10        -1.6010   -4.7860   -3.7200 hc        1 MOL      0.046844
     30 H11         1.4380   -4.7770   -4.1690 hc        1 MOL     -0.053966
     31 H12         0.4390   -4.3130   -5.3880 hc        1 MOL     -0.053966
     32 H13        -0.6300   -2.6480   -4.5080 hc        1 MOL      0.092886
     33 H14        -1.3240   -2.5220   -2.8390 hc        1 MOL      0.092886
     34 H15         0.4370   -2.6500   -3.1150 hc        1 MOL      0.092886
     35 H16         1.0480   -6.6420   -5.7110 hc        1 MOL      0.057608
     36 H17         0.5290   -7.0600   -4.1410 hc        1 MOL      0.057608
     37 H18        -0.7570   -6.5260   -5.3190 hc        1 MOL      0.057608
     38 N3         -2.5680   -6.2900   -1.4380 n         1 MOL     -0.591735
     39 C13        -3.2560   -5.1780   -0.7970 c3        1 MOL     -0.007413
     40 C14        -4.1630   -5.7630    0.3180 c         1 MOL      0.541609
     41 O6         -4.7020   -6.9340    0.2040 o         1 MOL     -0.567264
     42 C15        -4.0640   -4.4740   -1.8900 c3        1 MOL     -0.061965
     43 C16        -4.8380   -3.2710   -1.4050 c         1 MOL      0.743976
     44 O7         -4.6070   -2.7490   -0.3020 o         1 MOL     -0.720871
     45 O8         -5.8140   -2.8910   -2.0810 o         1 MOL     -0.720871
     46 H19        -3.1020   -7.1260   -1.6230 hn        1 MOL      0.325906
     47 H20        -2.5100   -4.4970   -0.3820 h1        1 MOL      0.044586
     48 H21        -4.8060   -5.1400   -2.3370 hc        1 MOL      0.013455
     49 H22        -3.4220   -4.1360   -2.6970 hc        1 MOL      0.013455
     50 N4         -4.2340   -5.0570    1.4530 n         1 MOL     -0.283813
     51 C17        -4.9420   -5.3080    2.6410 c3        1 MOL     -0.222801
     52 C18        -5.5640   -4.0200    3.2370 c         1 MOL      0.585308
     53 O9         -6.0730   -4.0240    4.3610 o         1 MOL     -0.592153
     54 H23        -3.6010   -4.2710    1.4660 hn        1 MOL      0.302778
     55 H24        -4.3010   -5.7660    3.3830 h1        1 MOL      0.108533
     56 H25        -5.7850   -5.9840    2.4880 h1        1 MOL      0.108533
     57 N5         -5.5840   -2.9050    2.4550 n         1 MOL     -0.356716
     58 C19        -6.2200   -1.6540    2.9150 c3        1 MOL      0.002405
     59 C20        -7.0990   -1.0410    1.7880 c         1 MOL      0.431653
     60 O10        -8.1590   -0.4560    2.1040 o         1 MOL     -0.588773
     61 C21        -5.0800   -0.6070    3.2900 c3        1 MOL     -0.190463
     62 C22        -3.9720   -0.3420    2.2290 c         1 MOL      0.706588
     63 O11        -2.8480   -0.7810    2.5020 o         1 MOL     -0.657132
     64 O12        -4.2800    0.2780    1.1960 o         1 MOL     -0.657132
     65 H26        -5.2140   -2.9080    1.5230 hn        1 MOL      0.186086
     66 H27        -6.7750   -1.8390    3.8310 h1        1 MOL      0.101760
     67 H28        -4.6420   -0.9840    4.2160 hc        1 MOL      0.042757
     68 H29        -5.4410    0.3410    3.6830 hc        1 MOL      0.042757
     69 N6         -6.7620   -1.1780    0.5010 n         1 MOL     -0.292451
     70 C23        -7.4920   -0.5310   -0.5670 c3        1 MOL     -0.002215
     71 C24        -7.4850    1.0140   -0.5800 c         1 MOL      0.354232
     72 O13        -8.2350    1.6170   -1.3880 o         1 MOL     -0.591763
     73 H30        -5.8620   -1.5690    0.2760 hn        1 MOL      0.348555
     74 H31        -8.4780   -0.9710   -0.6910 h1        1 MOL      0.073532
     75 H32        -6.9530   -0.8920   -1.4470 h1        1 MOL      0.073532
     76 N7         -6.6930    1.6120    0.2660 n         1 MOL      0.122756
     77 C25        -6.5610    2.9800    0.6260 c3        1 MOL     -0.036458
     78 C26        -6.2370    3.9620   -0.5350 c         1 MOL      0.544854
     79 O14        -6.5600    5.1130   -0.4740 o         1 MOL     -0.545990
     80 C27        -7.7000    3.3670    1.6000 c3        1 MOL      0.034868
     81 C28        -7.6410    2.6410    3.0140 c3        1 MOL     -0.234420
     82 C29        -8.9510    2.6250    3.7910 c         1 MOL      0.627403
     83 N8         -9.7500    1.6290    3.6010 n         1 MOL     -0.732384
     84 O15        -9.3250    3.5310    4.5110 o         1 MOL     -0.615433
     85 H33        -6.1300    0.9760    0.8170 hn        1 MOL      0.001620
     86 H34        -5.7100    3.0570    1.3090 h1        1 MOL      0.093675
     87 H35        -8.6370    3.3690    1.0460 hc        1 MOL      0.017005
     88 H36        -7.5360    4.3970    1.9250 hc        1 MOL      0.017005
     89 H37        -6.9120    3.1490    3.6510 hc        1 MOL      0.065922
     90 H38        -7.1570    1.6790    2.8350 hc        1 MOL      0.065922
     91 H39        -9.4080    0.9350    2.9510 hn        1 MOL      0.342145
     92 H40       -10.7050    1.6480    3.9160 hn        1 MOL      0.342145
     93 N9         -5.4760    3.4700   -1.5170 n         1 MOL     -0.424545
     94 C30        -5.0070    4.2540   -2.7110 c3        1 MOL     -0.027216
     95 C31        -3.4510    4.1290   -2.9680 c         1 MOL      0.652119
     96 O16        -2.8810    5.0200   -3.6160 o         1 MOL     -0.600110
     97 C32        -5.7260    3.8370   -3.9860 c3        1 MOL      0.349279
     98 C33        -5.6400    2.4060   -4.4720 c3        1 MOL     -0.403715
     99 C34        -7.2210    4.1310   -3.7690 c3        1 MOL     -0.403715
    100 H41        -5.0340    2.5670   -1.3900 hn        1 MOL      0.154011
    101 H42        -5.1870    5.3180   -2.5900 h1        1 MOL      0.074486
    102 H43        -5.2990    4.5050   -4.7330 hc        1 MOL     -0.053128
    103 H44        -6.1000    1.6510   -3.8310 hc        1 MOL      0.091988
    104 H45        -6.1540    2.3460   -5.4300 hc        1 MOL      0.091988
    105 H46        -4.5790    2.2320   -4.6060 hc        1 MOL      0.091988
    106 H47        -7.2040    5.1740   -3.4370 hc        1 MOL      0.091988
    107 H48        -7.7480    4.3370   -4.6990 hc        1 MOL      0.091988
    108 H49        -7.7560    3.4770   -3.0740 hc        1 MOL      0.091988
    109 N10        -2.8380    3.0190   -2.5070 n         1 MOL     -0.574397
    110 C35        -1.4020    2.8370   -2.6960 c3        1 MOL      0.147756
    111 C36        -0.6910    3.0910   -1.2940 c         1 MOL      0.562220
    112 O17        -1.3330    2.9640   -0.2400 o         1 MOL     -0.544239
    113 C37        -1.1610    1.3850   -3.3260 c3        1 MOL     -0.069714
    114 C38         0.1660    0.7260   -2.8060 c         1 MOL      0.427618
    115 N11         0.2200   -0.1780   -1.9540 n         1 MOL     -0.419741
    116 O18         1.2490    1.1630   -3.1500 o         1 MOL     -0.592371
    117 H50        -3.4040    2.2520   -2.1770 hn        1 MOL      0.378317
    118 H51        -0.9950    3.5150   -3.4480 h1        1 MOL      0.076454
    119 H52        -0.9900    1.5190   -4.3890 hc        1 MOL      0.016245
    120 H53        -1.9950    0.6880   -3.3300 hc        1 MOL      0.016245
    121 H54        -0.6550   -0.5410   -1.6000 hn        1 MOL      0.268074
    122 H55         1.1040   -0.6150   -1.7500 hn        1 MOL      0.268074
    123 N12         0.5830    3.3770   -1.3990 n         1 MOL     -0.574862
    124 C39         1.4130    3.5580   -0.2200 c3        1 MOL      0.343280
    125 C40         2.9140    4.0860   -0.5610 c         1 MOL      0.445121
    126 O19         3.3610    3.7900   -1.6920 o         1 MOL     -0.493969
    127 C41         1.4910    2.2210    0.5170 c3        1 MOL      0.053708
    128 C42         1.7220    2.3250    2.0110 ca        1 MOL      0.032252
    129 C43         3.0140    2.2290    2.6030 ca        1 MOL     -0.215973
    130 C44         0.6410    2.5930    2.8750 ca        1 MOL     -0.215973
    131 C45         3.1680    2.4520    3.9870 ca        1 MOL     -0.159545
    132 C46         0.7770    2.8930    4.2520 ca        1 MOL     -0.159545
    133 C47         2.0670    2.8090    4.8040 ca        1 MOL      0.191178
    134 O20         2.2160    3.3180    6.0810 oh        1 MOL     -0.474751
    135 H56         0.9210    3.6230   -2.3220 hn        1 MOL      0.287875
    136 H57         0.9410    4.3030    0.4250 h1        1 MOL     -0.014651
    137 H58         2.2450    1.6380   -0.0130 hc        1 MOL      0.018638
    138 H59         0.6000    1.6160    0.3640 hc        1 MOL      0.018638
    139 H60         3.8510    2.0100    1.9590 ha        1 MOL      0.175442
    140 H61        -0.3760    2.5900    2.5280 ha        1 MOL      0.175442
    141 H62         4.1660    2.4020    4.3780 ha        1 MOL      0.135300
    142 H63        -0.1110    3.0140    4.8540 ha        1 MOL      0.135300
    143 H64         3.1300    3.2030    6.3510 ho        1 MOL      0.346361
    144 N13         3.5710    4.6880    0.4590 n         1 MOL     -0.651963
    145 C48         5.0430    4.8940    0.3550 c3        1 MOL      0.275251
    146 C49         5.9720    4.0930    1.3060 c         1 MOL      0.433892
    147 O21         6.1700    4.3480    2.5070 o         1 MOL     -0.567429
    148 C50         5.3370    6.4570    0.4740 c3        1 MOL      0.250471
    149 C51         4.3840    7.4150   -0.3050 c3        1 MOL     -0.251722
    150 C52         4.7740    8.8310    0.0340 c         1 MOL      0.710382
    151 O22         5.5760    9.5210   -0.7080 o         1 MOL     -0.744740
    152 O23         4.4050    9.3630    1.0790 o         1 MOL     -0.744740
    153 H65         3.0420    4.9730    1.2640 hn        1 MOL      0.374197
    154 H66         5.2750    4.7260   -0.6890 h1        1 MOL      0.084084
    155 H67         6.3410    6.6640    0.0930 hc        1 MOL     -0.054373
    156 H68         5.2970    6.7100    1.5320 hc        1 MOL     -0.054373
    157 H69         3.3860    7.2270    0.0900 hc        1 MOL      0.003292
    158 H70         4.5560    7.2790   -1.3750 hc        1 MOL      0.003292
    159 N14         6.5040    2.9780    0.8300 n         1 MOL     -0.445504
    160 C53         6.3200    2.3550   -0.4800 c3        1 MOL     -0.605455
    161 C54         7.1320    2.9750   -1.6640 c         1 MOL      0.756281
    162 O24         8.0310    3.7640   -1.5010 o         1 MOL     -0.525812
    163 C55         6.5060    0.8560   -0.2810 c3        1 MOL      0.128410
    164 C56         7.9690    0.4990   -0.0290 c3        1 MOL      0.144637
    165 C57         8.1080   -0.9300    0.5250 c         1 MOL      0.638487
    166 O25         8.0790   -1.1850    1.7480 o         1 MOL     -0.768799
    167 O26         8.2350   -1.9170   -0.2290 o         1 MOL     -0.768799
    168 H71         7.2490    2.6340    1.4190 hn        1 MOL      0.364335
    169 H72         5.2730    2.4110   -0.7720 h1        1 MOL      0.210766
    170 H73         6.2790    0.2740   -1.1800 hc        1 MOL      0.055901
    171 H74         5.8850    0.4790    0.5280 hc        1 MOL      0.055901
    172 H75         8.5010    1.1970    0.6250 hc        1 MOL     -0.058215
    173 H76         8.4890    0.4440   -0.9790 hc        1 MOL     -0.058215
    174 N15         6.6640    2.6130   -2.8610 n         1 MOL     -0.409019
    175 C58         6.9460    3.3290   -4.1520 c3        1 MOL     -0.420022
    176 H77         8.0200    3.3380   -4.3350 h1        1 MOL      0.161402
    177 H78         6.4430    2.8150   -4.9710 h1        1 MOL      0.161402
    178 H79         6.5810    4.3540   -4.0870 h1        1 MOL      0.161402
    179 H80         5.9720    1.8750   -2.8960 hn        1 MOL      0.314188
    180 Ca1         7.8590   -3.7940    1.5010 Ca        1 MOL      1.704342
    181 O27         8.6370   -5.8660    3.1620 oh        1 MOL     -0.835574
    182 H81         8.7580   -6.7390    2.7820 ho        1 MOL      0.409388
    183 H82         8.8310   -5.9780    4.0910 ho        1 MOL      0.409388
    184 O28         9.8350   -5.6440    0.4340 oh        1 MOL     -0.835574
    185 H83        10.0400   -6.5520    0.6760 ho        1 MOL      0.409388
    186 H84        10.1900   -5.5500   -0.4530 ho        1 MOL      0.409388
    187 O29         7.3210   -2.9240    4.0000 oh        1 MOL     -0.835574
    188 H85         7.8380   -2.7220    4.7790 ho        1 MOL      0.409388
    189 H86         6.4610   -2.5660    4.1770 ho        1 MOL      0.409388
@<TRIPOS>BOND
     1    1    2 1   
     2    1    4 1   
     3    1    5 1   
     4    1    6 1   
     5    2    3 2   
     6    2    7 1   
     7    7    8 1   
     8    7   15 1   
     9    8    9 1   
    10    8   11 1   
    11    8   16 1   
    12    9   10 2   
    13    9   19 1   
    14   11   12 1   
    15   11   17 1   
    16   11   18 1   
    17   12   13 1   
    18   12   14 1   
    19   19   20 1   
    20   19   27 1   
    21   20   21 1   
    22   20   23 1   
    23   20   28 1   
    24   21   22 2   
    25   21   38 1   
    26   23   24 1   
    27   23   25 1   
    28   23   29 1   
    29   24   26 1   
    30   24   30 1   
    31   24   31 1   
    32   25   32 1   
    33   25   33 1   
    34   25   34 1   
    35   26   35 1   
    36   26   36 1   
    37   26   37 1   
    38   38   39 1   
    39   38   46 1   
    40   39   40 1   
    41   39   42 1   
    42   39   47 1   
    43   40   41 2   
    44   40   50 1   
    45   42   43 1   
    46   42   48 1   
    47   42   49 1   
    48   43   44 1   
    49   43   45 1   
    50   50   51 1   
    51   50   54 1   
    52   51   52 1   
    53   51   55 1   
    54   51   56 1   
    55   52   53 2   
    56   52   57 1   
    57   57   58 1   
    58   57   65 1   
    59   58   59 1   
    60   58   61 1   
    61   58   66 1   
    62   59   60 2   
    63   59   69 1   
    64   61   62 1   
    65   61   67 1   
    66   61   68 1   
    67   62   63 1   
    68   62   64 1   
    69   69   70 1   
    70   69   73 1   
    71   70   71 1   
    72   70   74 1   
    73   70   75 1   
    74   71   72 2   
    75   71   76 1   
    76   76   77 1   
    77   76   85 1   
    78   77   78 1   
    79   77   80 1   
    80   77   86 1   
    81   78   79 2   
    82   78   93 1   
    83   80   81 1   
    84   80   87 1   
    85   80   88 1   
    86   81   82 1   
    87   81   89 1   
    88   81   90 1   
    89   82   83 1   
    90   82   84 2   
    91   83   91 1   
    92   83   92 1   
    93   93   94 1   
    94   93  100 1   
    95   94   95 1   
    96   94   97 1   
    97   94  101 1   
    98   95   96 2   
    99   95  109 1   
   100   97   98 1   
   101   97   99 1   
   102   97  102 1   
   103   98  103 1   
   104   98  104 1   
   105   98  105 1   
   106   99  106 1   
   107   99  107 1   
   108   99  108 1   
   109  109  110 1   
   110  109  117 1   
   111  110  111 1   
   112  110  113 1   
   113  110  118 1   
   114  111  112 2   
   115  111  123 1   
   116  113  114 1   
   117  113  119 1   
   118  113  120 1   
   119  114  115 1   
   120  114  116 2   
   121  115  121 1   
   122  115  122 1   
   123  123  124 1   
   124  123  135 1   
   125  124  125 1   
   126  124  127 1   
   127  124  136 1   
   128  125  126 2   
   129  125  144 1   
   130  127  128 1   
   131  127  137 1   
   132  127  138 1   
   133  128  129 ar  
   134  128  130 ar  
   135  129  131 ar  
   136  129  139 1   
   137  130  132 ar  
   138  130  140 1   
   139  131  133 ar  
   140  131  141 1   
   141  132  133 ar  
   142  132  142 1   
   143  133  134 1   
   144  134  143 1   
   145  144  145 1   
   146  144  153 1   
   147  145  146 1   
   148  145  148 1   
   149  145  154 1   
   150  146  147 2   
   151  146  159 1   
   152  148  149 1   
   153  148  155 1   
   154  148  156 1   
   155  149  150 1   
   156  149  157 1   
   157  149  158 1   
   158  150  151 1   
   159  150  152 1   
   160  159  160 1   
   161  159  168 1   
   162  160  161 1   
   163  160  163 1   
   164  160  169 1   
   165  161  162 2   
   166  161  174 1   
   167  163  164 1   
   168  163  170 1   
   169  163  171 1   
   170  164  165 1   
   171  164  172 1   
   172  164  173 1   
   173  165  166 1   
   174  165  167 1   
   175  174  175 1   
   176  174  179 1   
   177  175  176 1   
   178  175  177 1   
   179  175  178 1   
   180  181  182 1   
   181  181  183 1   
   182  184  185 1   
   183  184  186 1   
   184  187  188 1   
   185  187  189 1   
@<TRIPOS>SUBSTRUCTURE
     1 MOL         1 TEMP              0 ****  ****    0 ROOT
