@<TRIPOS>MOLECULE
MOL
  189   185     1     0     0
SMALL
resp


@<TRIPOS>ATOM
      1 C1         -3.9370   -4.8010   -3.7380 c3        1 MOL     -0.392762
      2 C2         -4.6940   -3.9600   -2.6280 c         1 MOL      0.719510
      3 O1         -4.1520   -3.7240   -1.5500 o         1 MOL     -0.528121
      4 H1         -2.8630   -4.6420   -3.6440 hc        1 MOL      0.101737
      5 H2         -4.1600   -5.8600   -3.6080 hc        1 MOL      0.101737
      6 H3         -4.2660   -4.4800   -4.7260 hc        1 MOL      0.101737
      7 N1         -6.0140   -3.6930   -2.8880 n         1 MOL     -0.647008
      8 C3         -6.7490   -2.5860   -2.3270 c3        1 MOL      0.167399
      9 C4         -5.8300   -1.3040   -2.1580 c         1 MOL      0.441260
     10 O2         -5.2130   -1.1290   -1.1220 o         1 MOL     -0.577395
     11 C5         -7.4670   -2.9700   -1.0320 c3        1 MOL     -0.227640
     12 C6         -6.7090   -3.8820   -0.0390 c         1 MOL      0.829944
     13 O3         -6.1070   -3.4710    0.9240 o         1 MOL     -0.735709
     14 O4         -6.9820   -5.0990   -0.1760 o         1 MOL     -0.735709
     15 H4         -6.3610   -4.0110   -3.7840 hn        1 MOL      0.332790
     16 H5         -7.5160   -2.2950   -3.0610 h1        1 MOL      0.032046
     17 H6         -8.3390   -3.5570   -1.3410 hc        1 MOL      0.045454
     18 H7         -7.8150   -2.0810   -0.5100 hc        1 MOL      0.045454
     19 N2         -5.7270   -0.3860   -3.1990 n         1 MOL     -0.527335
     20 C7         -5.3910    0.9740   -3.0070 c3        1 MOL      0.255932
     21 C8         -6.3450    1.7650   -2.0950 c         1 MOL      0.245934
     22 O5         -6.9550    2.7160   -2.6750 o         1 MOL     -0.548540
     23 C9         -3.8590    1.1770   -2.6260 c3        1 MOL      0.302504
     24 C10        -3.4070    2.6780   -2.8250 c3        1 MOL     -0.045833
     25 C11        -3.0640    0.3750   -3.6290 c3        1 MOL     -0.507178
     26 C12        -3.4600    3.2110   -4.2740 c3        1 MOL     -0.345310
     27 H8         -6.3170   -0.5860   -3.9920 hn        1 MOL      0.271043
     28 H9         -5.4970    1.4440   -3.9810 h1        1 MOL      0.032782
     29 H10        -3.5690    0.8840   -1.6220 hc        1 MOL     -0.123340
     30 H11        -2.3830    2.8250   -2.4990 hc        1 MOL      0.090710
     31 H12        -3.9290    3.3890   -2.1760 hc        1 MOL      0.090710
     32 H13        -3.0540   -0.6630   -3.3090 hc        1 MOL      0.111016
     33 H14        -3.5510    0.4440   -4.6050 hc        1 MOL      0.111016
     34 H15        -2.0570    0.7960   -3.6090 hc        1 MOL      0.111016
     35 H16        -3.1430    4.2530   -4.2470 hc        1 MOL      0.071439
     36 H17        -2.7880    2.6660   -4.9460 hc        1 MOL      0.071439
     37 H18        -4.4960    3.1450   -4.6010 hc        1 MOL      0.071439
     38 N3         -6.3960    1.4160   -0.8140 n         1 MOL      0.008442
     39 C13        -7.3360    2.1660    0.0710 c3        1 MOL     -0.006608
     40 C14        -7.0280    3.6600    0.3460 c         1 MOL      0.577899
     41 O6         -7.9170    4.4900    0.1630 o         1 MOL     -0.530220
     42 C15        -7.6860    1.3620    1.3000 c3        1 MOL     -0.448427
     43 C16        -8.8870    1.9980    2.1000 c         1 MOL      0.769385
     44 O7         -8.7980    2.2280    3.3480 o         1 MOL     -0.730043
     45 O8         -9.9740    2.1030    1.4770 o         1 MOL     -0.730043
     46 H19        -5.9260    0.5960   -0.4480 hn        1 MOL      0.115546
     47 H20        -8.2530    2.1760   -0.5210 h1        1 MOL      0.068754
     48 H21        -6.7250    1.3480    1.8210 hc        1 MOL      0.136580
     49 H22        -7.8820    0.3010    1.2310 hc        1 MOL      0.136580
     50 N4         -5.7580    4.0680    0.6300 n         1 MOL     -0.557558
     51 C17        -4.5710    3.2640    0.6900 c3        1 MOL      0.345648
     52 C18        -3.4690    4.0160    1.5020 c         1 MOL      0.493162
     53 O9         -3.4380    5.2290    1.3890 o         1 MOL     -0.574862
     54 H23        -5.5750    5.0560    0.5560 hn        1 MOL      0.287765
     55 H24        -4.0540    3.1040   -0.2520 h1        1 MOL     -0.090401
     56 H25        -4.7920    2.3130    1.1990 h1        1 MOL     -0.090401
     57 N5         -2.5200    3.3820    2.1870 n         1 MOL     -0.344890
     58 C19        -2.6290    2.0550    2.7390 c3        1 MOL      0.060725
     59 C20        -2.5890    0.9480    1.6420 c         1 MOL      0.132619
     60 O10        -3.5690    0.2160    1.5390 o         1 MOL     -0.403036
     61 C21        -3.6240    1.8710    3.8720 c3        1 MOL     -0.195291
     62 C22        -3.3400    0.6500    4.6610 c         1 MOL      0.791521
     63 O11        -4.0870    0.3640    5.6320 o         1 MOL     -0.729434
     64 O12        -2.3220    0.0160    4.4610 o         1 MOL     -0.729434
     65 H26        -1.7910    3.9870    2.5420 hn        1 MOL      0.222252
     66 H27        -1.6860    1.8950    3.2530 h1        1 MOL      0.115692
     67 H28        -4.5870    1.7020    3.3930 hc        1 MOL      0.055380
     68 H29        -3.6910    2.6860    4.5900 hc        1 MOL      0.055380
     69 N6         -1.4870    0.7160    0.8700 n         1 MOL     -0.176674
     70 C23        -0.1780    1.3040    0.9680 c3        1 MOL      0.025476
     71 C24         0.0140    2.7030    0.3130 c         1 MOL      0.452779
     72 O13        -0.8640    3.2480   -0.3260 o         1 MOL     -0.475614
     73 H30        -1.6670    0.2900   -0.0310 hn        1 MOL      0.268798
     74 H31         0.6180    0.7070    0.5400 h1        1 MOL      0.027870
     75 H32         0.0330    1.4930    2.0260 h1        1 MOL      0.027870
     76 N7          1.1610    3.3200    0.6010 n         1 MOL     -0.410074
     77 C25         1.6340    4.5490   -0.1260 c3        1 MOL     -0.053158
     78 C26         2.1680    4.3370   -1.5600 c         1 MOL      0.523325
     79 O14         2.1180    5.3070   -2.2750 o         1 MOL     -0.506993
     80 C27         2.7730    5.1720    0.6030 c3        1 MOL      0.051685
     81 C28         2.3600    5.8170    1.9960 c3        1 MOL     -0.175823
     82 C29         3.2650    6.6790    2.8500 c         1 MOL      0.695967
     83 N8          2.6920    7.7720    3.3860 n         1 MOL     -0.834844
     84 O15         4.4010    6.3250    3.1320 o         1 MOL     -0.567908
     85 H33         1.7480    2.8120    1.2570 hn        1 MOL      0.284013
     86 H34         0.8280    5.2840   -0.0860 h1        1 MOL      0.132101
     87 H35         3.1450    6.0950    0.1420 hc        1 MOL      0.008884
     88 H36         3.6080    4.4770    0.6280 hc        1 MOL      0.008884
     89 H37         2.0530    5.0440    2.6960 hc        1 MOL      0.054570
     90 H38         1.5490    6.4600    1.6620 hc        1 MOL      0.054570
     91 H39         1.7030    7.9270    3.2820 hn        1 MOL      0.369396
     92 H40         3.2580    8.3600    3.9790 hn        1 MOL      0.369396
     93 N9          2.6730    3.1290   -1.8730 n         1 MOL     -0.422089
     94 C30         3.2070    2.7630   -3.2120 c3        1 MOL     -0.139537
     95 C31         4.6930    2.2290   -3.3150 c         1 MOL      0.793738
     96 O16         5.1910    2.1500   -4.4400 o         1 MOL     -0.585848
     97 C32         2.2910    1.7750   -4.0240 c3        1 MOL      0.169094
     98 C33         0.8320    2.1750   -4.2410 c3        1 MOL     -0.126404
     99 C34         2.2720    0.4250   -3.2880 c3        1 MOL     -0.126404
    100 H41         2.6180    2.4160   -1.1490 hn        1 MOL      0.258459
    101 H42         3.3080    3.6400   -3.8400 h1        1 MOL      0.113381
    102 H43         2.7260    1.6650   -5.0250 hc        1 MOL     -0.006447
    103 H44         0.4110    2.5490   -3.3070 hc        1 MOL      0.029754
    104 H45         0.7900    2.9750   -4.9850 hc        1 MOL      0.029754
    105 H46         0.2480    1.3220   -4.5950 hc        1 MOL      0.029754
    106 H47         1.8360    0.3990   -2.2940 hc        1 MOL      0.029754
    107 H48         1.6260   -0.2510   -3.8500 hc        1 MOL      0.029754
    108 H49         3.2470   -0.0560   -3.2360 hc        1 MOL      0.029754
    109 N10         5.4470    1.7900   -2.2590 n         1 MOL     -0.597841
    110 C35         6.7850    1.1680   -2.3430 c3        1 MOL      0.046868
    111 C36         6.8900   -0.0370   -1.3560 c         1 MOL      0.669901
    112 O17         7.7210   -0.8550   -1.6320 o         1 MOL     -0.565863
    113 C37         7.8920    2.2390   -2.1120 c3        1 MOL     -0.466913
    114 C38         7.8430    3.4700   -2.9900 c         1 MOL      0.715440
    115 N11         7.7680    3.2830   -4.2890 n         1 MOL     -0.841784
    116 O18         7.6910    4.5770   -2.5740 o         1 MOL     -0.547296
    117 H50         5.0110    1.7380   -1.3480 hn        1 MOL      0.316926
    118 H51         7.0510    0.7030   -3.2900 h1        1 MOL      0.082692
    119 H52         8.8940    1.8160   -2.0950 hc        1 MOL      0.149299
    120 H53         7.7300    2.6160   -1.1020 hc        1 MOL      0.149299
    121 H54         7.7830    2.3430   -4.6500 hn        1 MOL      0.384961
    122 H55         7.6490    4.0100   -4.9760 hn        1 MOL      0.384961
    123 N12         5.9210   -0.3260   -0.4670 n         1 MOL     -0.432200
    124 C39         5.9410   -1.4450    0.5190 c3        1 MOL      0.014303
    125 C40         4.5630   -2.2270    0.7670 c         1 MOL      0.515203
    126 O19         3.4690   -1.7190    0.5670 o         1 MOL     -0.480074
    127 C41         6.4140   -0.9290    1.8350 c3        1 MOL      0.017605
    128 C42         7.8540   -0.6870    1.9630 ca        1 MOL     -0.007775
    129 C43         8.6060   -1.7280    2.5790 ca        1 MOL     -0.125210
    130 C44         8.5910    0.4180    1.4380 ca        1 MOL     -0.125210
    131 C45         9.9880   -1.6620    2.6830 ca        1 MOL     -0.252572
    132 C46         9.9880    0.5180    1.5420 ca        1 MOL     -0.252572
    133 C47        10.6810   -0.5440    2.1780 ca        1 MOL      0.317855
    134 O20        12.0450   -0.4380    2.2240 oh        1 MOL     -0.494421
    135 H56         5.1860    0.3690   -0.5780 hn        1 MOL      0.189144
    136 H57         6.7630   -2.0250    0.0840 h1        1 MOL      0.053714
    137 H58         6.0780   -1.5910    2.6420 hc        1 MOL      0.051651
    138 H59         5.9220    0.0000    2.1420 hc        1 MOL      0.051651
    139 H60         8.1140   -2.6120    2.9510 ha        1 MOL      0.120465
    140 H61         8.0050    1.2230    1.0270 ha        1 MOL      0.120465
    141 H62        10.6200   -2.3810    3.1940 ha        1 MOL      0.136524
    142 H63        10.5760    1.2950    1.0660 ha        1 MOL      0.136524
    143 H64        12.4690   -1.2590    2.4670 ho        1 MOL      0.354544
    144 N13         4.7390   -3.4840    1.1920 n         1 MOL     -0.518049
    145 C48         3.7230   -4.4150    1.6100 c3        1 MOL      0.054128
    146 C49         2.6020   -4.8310    0.6330 c         1 MOL      0.486110
    147 O21         1.7620   -5.6560    1.0040 o         1 MOL     -0.458349
    148 C50         3.0880   -4.0120    2.9220 c3        1 MOL      0.167992
    149 C51         4.0840   -3.8500    4.1010 c3        1 MOL     -0.212250
    150 C52         3.2780   -3.4700    5.3930 c         1 MOL      0.660454
    151 O22         3.6450   -2.4560    6.0770 o         1 MOL     -0.708929
    152 O23         2.2740   -4.1120    5.7420 o         1 MOL     -0.708929
    153 H65         5.6990   -3.7700    1.2950 hn        1 MOL      0.296066
    154 H66         4.3410   -5.2950    1.7760 h1        1 MOL      0.054119
    155 H67         2.4160   -4.8430    3.1420 hc        1 MOL      0.011155
    156 H68         2.5280   -3.0830    2.8420 hc        1 MOL      0.011155
    157 H69         4.8070   -3.0670    3.8900 hc        1 MOL     -0.004423
    158 H70         4.6570   -4.7570    4.2950 hc        1 MOL     -0.004423
    159 N14         2.7310   -4.3950   -0.6480 n         1 MOL     -0.717968
    160 C53         1.5430   -4.5930   -1.5290 c3        1 MOL      0.213105
    161 C54         1.9360   -5.2960   -2.8450 c         1 MOL      0.438595
    162 O24         1.1040   -5.7850   -3.5840 o         1 MOL     -0.549823
    163 C55         0.9930   -3.2250   -1.9980 c3        1 MOL     -0.127557
    164 C56         0.4410   -2.3120   -0.9300 c3        1 MOL      0.398470
    165 C57        -1.0450   -2.4980   -0.5300 c         1 MOL      0.511705
    166 O25        -1.9190   -1.6270   -0.7540 o         1 MOL     -0.666194
    167 O26        -1.5000   -3.5740    0.0470 o         1 MOL     -0.666194
    168 H71         3.4120   -3.6810   -0.8470 hn        1 MOL      0.348909
    169 H72         0.7610   -5.0940   -0.9520 h1        1 MOL      0.087014
    170 H73         0.1540   -3.4780   -2.6510 hc        1 MOL      0.000473
    171 H74         1.8390   -2.7830   -2.5180 hc        1 MOL      0.000473
    172 H75         0.6540   -1.2700   -1.1690 hc        1 MOL     -0.112081
    173 H76         0.9880   -2.4390    0.0070 hc        1 MOL     -0.112081
    174 N15         3.1930   -5.3930   -3.1260 n         1 MOL     -0.213424
    175 C58         3.7600   -6.2020   -4.2660 c3        1 MOL     -0.293033
    176 H77         3.7720   -5.5950   -5.1710 h1        1 MOL      0.120668
    177 H78         4.7760   -6.5120   -4.0220 h1        1 MOL      0.120668
    178 H79         3.1410   -7.0840   -4.4290 h1        1 MOL      0.120668
    179 H80         3.8400   -4.8140   -2.6000 hn        1 MOL      0.223893
    180 Ca1        -3.7810   -2.3280    0.8370 Ca        1 MOL      1.796434
    181 O27        -3.7490   -4.6020    2.2400 oh        1 MOL     -0.913761
    182 H81        -4.1510   -4.9130    3.0430 ho        1 MOL      0.435776
    183 H82        -3.0590   -5.2320    2.0490 ho        1 MOL      0.435776
    184 O28        -4.9770   -1.7400    3.2880 oh        1 MOL     -0.913761
    185 H83        -5.8040   -2.0860    3.6150 ho        1 MOL      0.435776
    186 H84        -4.4510   -1.5880    4.0710 ho        1 MOL      0.435776
    187 O29        -1.8050   -1.9820    2.7140 oh        1 MOL     -0.913761
    188 H85        -0.9730   -2.3400    3.0310 ho        1 MOL      0.435776
    189 H86        -2.1210   -1.4380    3.4390 ho        1 MOL      0.435776
@<TRIPOS>BOND
     1    1    2 1   
     2    1    4 1   
     3    1    5 1   
     4    1    6 1   
     5    2    3 2   
     6    2    7 1   
     7    7    8 1   
     8    7   15 1   
     9    8    9 1   
    10    8   11 1   
    11    8   16 1   
    12    9   10 2   
    13    9   19 1   
    14   11   12 1   
    15   11   17 1   
    16   11   18 1   
    17   12   13 1   
    18   12   14 1   
    19   19   20 1   
    20   19   27 1   
    21   20   21 1   
    22   20   23 1   
    23   20   28 1   
    24   21   22 2   
    25   21   38 1   
    26   23   24 1   
    27   23   25 1   
    28   23   29 1   
    29   24   26 1   
    30   24   30 1   
    31   24   31 1   
    32   25   32 1   
    33   25   33 1   
    34   25   34 1   
    35   26   35 1   
    36   26   36 1   
    37   26   37 1   
    38   38   39 1   
    39   38   46 1   
    40   39   40 1   
    41   39   42 1   
    42   39   47 1   
    43   40   41 2   
    44   40   50 1   
    45   42   43 1   
    46   42   48 1   
    47   42   49 1   
    48   43   44 1   
    49   43   45 1   
    50   50   51 1   
    51   50   54 1   
    52   51   52 1   
    53   51   55 1   
    54   51   56 1   
    55   52   53 2   
    56   52   57 1   
    57   57   58 1   
    58   57   65 1   
    59   58   59 1   
    60   58   61 1   
    61   58   66 1   
    62   59   60 2   
    63   59   69 1   
    64   61   62 1   
    65   61   67 1   
    66   61   68 1   
    67   62   63 1   
    68   62   64 1   
    69   69   70 1   
    70   69   73 1   
    71   70   71 1   
    72   70   74 1   
    73   70   75 1   
    74   71   72 2   
    75   71   76 1   
    76   76   77 1   
    77   76   85 1   
    78   77   78 1   
    79   77   80 1   
    80   77   86 1   
    81   78   79 2   
    82   78   93 1   
    83   80   81 1   
    84   80   87 1   
    85   80   88 1   
    86   81   82 1   
    87   81   89 1   
    88   81   90 1   
    89   82   83 1   
    90   82   84 2   
    91   83   91 1   
    92   83   92 1   
    93   93   94 1   
    94   93  100 1   
    95   94   95 1   
    96   94   97 1   
    97   94  101 1   
    98   95   96 2   
    99   95  109 1   
   100   97   98 1   
   101   97   99 1   
   102   97  102 1   
   103   98  103 1   
   104   98  104 1   
   105   98  105 1   
   106   99  106 1   
   107   99  107 1   
   108   99  108 1   
   109  109  110 1   
   110  109  117 1   
   111  110  111 1   
   112  110  113 1   
   113  110  118 1   
   114  111  112 2   
   115  111  123 1   
   116  113  114 1   
   117  113  119 1   
   118  113  120 1   
   119  114  115 1   
   120  114  116 2   
   121  115  121 1   
   122  115  122 1   
   123  123  124 1   
   124  123  135 1   
   125  124  125 1   
   126  124  127 1   
   127  124  136 1   
   128  125  126 2   
   129  125  144 1   
   130  127  128 1   
   131  127  137 1   
   132  127  138 1   
   133  128  129 ar  
   134  128  130 ar  
   135  129  131 ar  
   136  129  139 1   
   137  130  132 ar  
   138  130  140 1   
   139  131  133 ar  
   140  131  141 1   
   141  132  133 ar  
   142  132  142 1   
   143  133  134 1   
   144  134  143 1   
   145  144  145 1   
   146  144  153 1   
   147  145  146 1   
   148  145  148 1   
   149  145  154 1   
   150  146  147 2   
   151  146  159 1   
   152  148  149 1   
   153  148  155 1   
   154  148  156 1   
   155  149  150 1   
   156  149  157 1   
   157  149  158 1   
   158  150  151 1   
   159  150  152 1   
   160  159  160 1   
   161  159  168 1   
   162  160  161 1   
   163  160  163 1   
   164  160  169 1   
   165  161  162 2   
   166  161  174 1   
   167  163  164 1   
   168  163  170 1   
   169  163  171 1   
   170  164  165 1   
   171  164  172 1   
   172  164  173 1   
   173  165  166 1   
   174  165  167 1   
   175  174  175 1   
   176  174  179 1   
   177  175  176 1   
   178  175  177 1   
   179  175  178 1   
   180  181  182 1   
   181  181  183 1   
   182  184  185 1   
   183  184  186 1   
   184  187  188 1   
   185  187  189 1   
@<TRIPOS>SUBSTRUCTURE
     1 MOL         1 TEMP              0 ****  ****    0 ROOT
