@<TRIPOS>MOLECULE
MOL
  186   183     1     0     0
SMALL
resp


@<TRIPOS>ATOM
      1 C1          9.1390   -0.7580    2.1290 c3        1 MOL     -0.639629
      2 C2          7.9570   -0.4820    1.1430 c         1 MOL      0.847981
      3 O1          6.7750   -0.4290    1.5660 o         1 MOL     -0.685089
      4 H1          9.0030   -1.7340    2.5950 hc        1 MOL      0.162381
      5 H2         10.0810   -0.7460    1.5810 hc        1 MOL      0.162381
      6 H3          9.1570    0.0130    2.9000 hc        1 MOL      0.162381
      7 N1          8.2750   -0.4700   -0.1530 n         1 MOL     -0.656677
      8 C3          7.3550   -0.1660   -1.2880 c3        1 MOL      0.002629
      9 C4          6.6410   -1.3780   -1.8680 c         1 MOL      0.595337
     10 O2          6.4270   -1.6200   -3.0400 o         1 MOL     -0.478824
     11 C5          8.1760    0.4130   -2.4210 c3        1 MOL     -0.227087
     12 C6          8.8810    1.6930   -1.9760 c         1 MOL      0.728920
     13 O3          8.1680    2.7050   -2.0560 o         1 MOL     -0.656476
     14 O4         10.1180    1.6320   -1.6410 o         1 MOL     -0.656476
     15 H4          9.1750   -0.8440   -0.4230 hn        1 MOL      0.341619
     16 H5          6.6870    0.6190   -0.9280 h1        1 MOL      0.160488
     17 H6          7.4820    0.6230   -3.2420 hc        1 MOL      0.064548
     18 H7          8.8430   -0.3590   -2.7830 hc        1 MOL      0.064548
     19 N2          6.4390   -2.3170   -0.9010 n         1 MOL     -0.379317
     20 C7          5.8510   -3.6540   -1.0690 c3        1 MOL      0.051309
     21 C8          4.4360   -3.5390   -1.6590 c         1 MOL      0.514010
     22 O5          4.2190   -4.1110   -2.7540 o         1 MOL     -0.553475
     23 C9          6.0580   -4.4320    0.2670 c3        1 MOL     -0.100067
     24 C10         7.4930   -4.9650    0.4400 c3        1 MOL     -0.109679
     25 C11         7.6200   -5.5910    1.8900 c3        1 MOL     -0.075903
     26 C12         9.0960   -5.7280    2.4060 c3        1 MOL      0.195128
     27 N3          9.1130   -6.4360    3.6910 n4        1 MOL     -0.439798
     28 H8          6.7040   -2.0480    0.0360 hn        1 MOL      0.224931
     29 H9          6.3730   -4.1890   -1.8640 h1        1 MOL      0.053651
     30 H10         5.4130   -5.3120    0.1560 hc        1 MOL      0.069783
     31 H11         5.8560   -3.8140    1.1350 hc        1 MOL      0.069783
     32 H12         8.3380   -4.2950    0.3250 hc        1 MOL      0.057897
     33 H13         7.5040   -5.6990   -0.3640 hc        1 MOL      0.057897
     34 H14         7.2130   -6.6130    1.9510 hc        1 MOL      0.035037
     35 H15         7.1190   -4.9470    2.6150 hc        1 MOL      0.035037
     36 H16         9.4600   -4.7290    2.6440 hx        1 MOL      0.021371
     37 H17         9.7580   -6.1680    1.6650 hx        1 MOL      0.021371
     38 H18         8.6120   -5.8910    4.3840 hn        1 MOL      0.300301
     39 H19         8.7790   -7.3370    3.3630 hn        1 MOL      0.300301
     40 H20        10.0800   -6.5580    3.9570 hn        1 MOL      0.300301
     41 N4          3.4150   -2.9760   -1.0440 n         1 MOL     -0.340717
     42 C13         3.4130   -2.1070    0.1300 c3        1 MOL     -0.283564
     43 C14         3.4250   -0.6270   -0.2640 c         1 MOL      0.557484
     44 O6          2.9240   -0.2190   -1.2870 o         1 MOL     -0.486329
     45 C15         2.2550   -2.4370    1.0790 c3        1 MOL     -0.232472
     46 C16         0.8680   -2.5540    0.4390 c         1 MOL      0.850309
     47 O7          0.6480   -2.1000   -0.7060 o         1 MOL     -0.715000
     48 O8          0.0390   -3.2550    1.1140 o         1 MOL     -0.715000
     49 H21         2.5780   -3.0620   -1.6080 hn        1 MOL      0.323267
     50 H22         4.2680   -2.2830    0.7940 h1        1 MOL      0.159721
     51 H23         2.1340   -1.7210    1.8930 hc        1 MOL      0.048906
     52 H24         2.3960   -3.4300    1.5050 hc        1 MOL      0.048906
     53 N5          3.9240    0.1480    0.6570 n         1 MOL     -0.320368
     54 C17         4.1140    1.5930    0.5080 c3        1 MOL     -0.174469
     55 C18         2.8120    2.3830    0.0280 c         1 MOL      0.618127
     56 O9          1.6390    1.9360    0.0130 o         1 MOL     -0.739498
     57 H25         4.3660   -0.2330    1.4800 hn        1 MOL      0.309362
     58 H26         4.9300    1.8340   -0.1670 h1        1 MOL      0.124139
     59 H27         4.4510    2.0420    1.4470 h1        1 MOL      0.124139
     60 N6          3.1040    3.5310   -0.6260 n         1 MOL     -0.485215
     61 C19         2.1030    4.5500   -1.1050 c3        1 MOL      0.270650
     62 C20         2.6710    5.9370   -0.9390 c         1 MOL      0.370243
     63 O10         3.9010    6.1130   -0.7570 o         1 MOL     -0.519985
     64 C21         1.6110    4.3240   -2.5470 c3        1 MOL      0.168765
     65 C22         1.7960    2.9290   -3.1100 c         1 MOL      0.585716
     66 O11         2.7390    2.6610   -3.8030 o         1 MOL     -0.638996
     67 O12         0.9080    2.0350   -2.7730 o         1 MOL     -0.638996
     68 H28         4.0660    3.7800   -0.7980 hn        1 MOL      0.312379
     69 H29         1.2970    4.3420   -0.4080 h1        1 MOL      0.038343
     70 H30         2.1300    5.0440   -3.1770 hc        1 MOL     -0.087350
     71 H31         0.5530    4.5240   -2.6770 hc        1 MOL     -0.087350
     72 N7          1.8980    7.0210   -1.0180 n         1 MOL     -0.395210
     73 C23         0.4400    7.0740   -1.1800 c3        1 MOL     -0.136677
     74 C24        -0.2530    6.4070    0.0650 c         1 MOL      0.613812
     75 O13         0.1710    6.6340    1.2050 o         1 MOL     -0.531307
     76 H32         2.4250    7.8630   -1.1890 hn        1 MOL      0.320826
     77 H33         0.2020    6.5360   -2.0940 h1        1 MOL      0.089098
     78 H34         0.1280    8.0890   -1.4590 h1        1 MOL      0.089098
     79 N8         -1.2670    5.5840   -0.1090 n         1 MOL     -0.666141
     80 C25        -2.0080    4.9520    1.0140 c3        1 MOL      0.018671
     81 C26        -1.2880    3.6900    1.3710 c         1 MOL      0.772622
     82 O14        -0.8770    2.9400    0.4650 o         1 MOL     -0.599031
     83 C27        -3.5260    4.8740    0.6180 c3        1 MOL      0.516123
     84 C28        -4.2470    6.2880    0.5700 c3        1 MOL     -0.297676
     85 O15        -4.1670    4.0530    1.5400 oh        1 MOL     -0.697596
     86 H35        -1.4620    5.3590   -1.0750 hn        1 MOL      0.325771
     87 H36        -1.9000    5.5410    1.9250 h1        1 MOL      0.075882
     88 H37        -3.5130    4.3830   -0.3470 h1        1 MOL     -0.049806
     89 H38        -4.3300    3.1840    1.1630 ho        1 MOL      0.362055
     90 H39        -3.9280    6.7180   -0.3800 hc        1 MOL      0.078367
     91 H40        -5.3360    6.2790    0.4800 hc        1 MOL      0.078367
     92 H41        -3.8580    6.9180    1.3670 hc        1 MOL      0.078367
     93 N9         -1.1990    3.2960    2.6410 n         1 MOL     -0.529415
     94 C29        -0.7910    2.0140    3.1510 c3        1 MOL      0.011347
     95 C30        -1.2830    0.7560    2.3720 c         1 MOL      0.273013
     96 O16        -0.6500    0.3270    1.3840 o         1 MOL     -0.355278
     97 C31         0.7580    1.9770    3.3970 c3        1 MOL      0.048659
     98 C32         1.2510    3.2310    4.1480 c3        1 MOL      0.199805
     99 C33         1.1340    0.8160    4.3160 c3        1 MOL     -0.505694
    100 C34         2.7110    3.2550    4.1800 c3        1 MOL     -0.167283
    101 H42        -1.4490    3.9940    3.3210 hn        1 MOL      0.264584
    102 H43        -1.2270    1.9980    4.1520 h1        1 MOL      0.071617
    103 H44         1.3730    1.9190    2.5040 hc        1 MOL      0.093905
    104 H45         0.8640    3.1670    5.1660 hc        1 MOL     -0.032664
    105 H46         0.8490    4.1580    3.7480 hc        1 MOL     -0.032664
    106 H47         2.2130    0.6650    4.3930 hc        1 MOL      0.129414
    107 H48         0.6780    0.8110    5.3000 hc        1 MOL      0.129414
    108 H49         0.7220   -0.0750    3.8490 hc        1 MOL      0.129414
    109 H50         3.0790    3.5620    3.1960 hc        1 MOL      0.029787
    110 H51         2.9410    4.0250    4.9140 hc        1 MOL      0.029787
    111 H52         3.3550    2.3790    4.2200 hc        1 MOL      0.029787
    112 N10        -2.1620    0.0140    2.9820 n         1 MOL     -0.227856
    113 C35        -2.4590   -1.4200    2.6180 c3        1 MOL     -0.029342
    114 C36        -3.8370   -1.6390    2.0910 c         1 MOL      0.451345
    115 O17        -4.0200   -2.6770    1.5010 o         1 MOL     -0.532772
    116 C37        -2.0020   -2.4610    3.6800 c3        1 MOL      0.488014
    117 C38        -2.4180   -2.0040    5.0530 c3        1 MOL     -0.150985
    118 O18        -0.6430   -2.6440    3.6790 oh        1 MOL     -0.648705
    119 H53        -2.7540    0.3930    3.7060 hn        1 MOL      0.232669
    120 H54        -1.8450   -1.6950    1.7590 h1        1 MOL      0.050732
    121 H55        -2.4580   -3.4430    3.5250 h1        1 MOL     -0.008196
    122 H56        -0.4280   -2.7490    2.7500 ho        1 MOL      0.382241
    123 H57        -2.1040   -1.0020    5.3400 hc        1 MOL      0.010103
    124 H58        -3.5080   -1.9670    5.0900 hc        1 MOL      0.010103
    125 H59        -2.1780   -2.8030    5.7450 hc        1 MOL      0.010103
    126 N11        -4.7730   -0.7620    2.3880 n         1 MOL     -0.396091
    127 C39        -6.1510   -0.8850    1.9500 c3        1 MOL     -0.106194
    128 C40        -6.2830   -1.1000    0.4220 c         1 MOL      0.607864
    129 O19        -5.7920   -0.2770   -0.3790 o         1 MOL     -0.468321
    130 C41        -7.0780    0.1770    2.5080 c3        1 MOL      0.297567
    131 C42        -6.9850    1.6100    1.8280 c3        1 MOL     -0.368856
    132 O20        -8.3210   -0.3820    2.3910 oh        1 MOL     -0.647444
    133 H60        -4.4620    0.0290    2.9310 hn        1 MOL      0.263048
    134 H61        -6.5300   -1.8140    2.3900 h1        1 MOL      0.104260
    135 H62        -6.7640    0.3830    3.5360 h1        1 MOL      0.018692
    136 H63        -8.9510    0.1660    2.8670 ho        1 MOL      0.414139
    137 H64        -7.4240    2.3630    2.4820 hc        1 MOL      0.117842
    138 H65        -5.9330    1.8650    1.7350 hc        1 MOL      0.117842
    139 H66        -7.4880    1.6730    0.8490 hc        1 MOL      0.117842
    140 N12        -7.1360   -2.0840    0.0200 n         1 MOL     -0.473689
    141 C43        -7.5110   -2.5500   -1.3190 c3        1 MOL      0.225648
    142 C44        -6.3130   -2.3790   -2.3520 c         1 MOL      0.500008
    143 O21        -6.5330   -1.8720   -3.4490 o         1 MOL     -0.505372
    144 C45        -8.7830   -1.9090   -1.8280 c3        1 MOL     -0.502907
    145 C46        -9.9810   -2.0590   -0.8420 c3        1 MOL      0.366975
    146 C47       -11.3150   -1.6040   -1.3810 c3        1 MOL     -0.143532
    147 C48       -12.3610   -1.5240   -0.2720 c3        1 MOL     -0.076096
    148 N13       -12.8220   -2.9160   -0.0400 n4        1 MOL     -0.235388
    149 H67        -7.6340   -2.5850    0.7380 hn        1 MOL      0.239095
    150 H68        -7.5780   -3.6370   -1.2870 h1        1 MOL      0.020915
    151 H69        -8.9290   -2.2660   -2.8480 hc        1 MOL      0.157492
    152 H70        -8.7360   -0.8160   -1.8680 hc        1 MOL      0.157492
    153 H71        -9.7740   -1.6190    0.1270 hc        1 MOL     -0.059658
    154 H72       -10.1490   -3.1170   -0.6210 hc        1 MOL     -0.059658
    155 H73       -11.7030   -2.2170   -2.2030 hc        1 MOL      0.059955
    156 H74       -11.2060   -0.5990   -1.7710 hc        1 MOL      0.059955
    157 H75       -13.1860   -0.8310   -0.4860 hx        1 MOL      0.119828
    158 H76       -11.8150   -1.1680    0.6070 hx        1 MOL      0.119828
    159 H77       -13.2980   -3.0860    0.8320 hn        1 MOL      0.234308
    160 H78       -13.4780   -3.0950   -0.7870 hn        1 MOL      0.234308
    161 H79       -12.0950   -3.5890   -0.2260 hn        1 MOL      0.234308
    162 N14        -5.1180   -2.7330   -1.9260 n         1 MOL     -0.528415
    163 C49        -3.8610   -2.2160   -2.4560 c3        1 MOL      0.028418
    164 C50        -2.8480   -2.2320   -1.3540 c         1 MOL     -0.042514
    165 O22        -2.4250   -1.1960   -0.9220 o         1 MOL     -0.395804
    166 C51        -3.4870   -2.9030   -3.7930 c3        1 MOL      0.039732
    167 C52        -2.2000   -2.4270   -4.4230 c3        1 MOL     -0.235522
    168 C53        -1.7420   -1.0070   -4.1630 c         1 MOL      0.748035
    169 O23        -0.8570   -0.8550   -3.3600 o         1 MOL     -0.666911
    170 O24        -2.2330   -0.0270   -4.7100 o         1 MOL     -0.666911
    171 H80        -5.0660   -3.1260   -0.9960 hn        1 MOL      0.301019
    172 H81        -4.0940   -1.1600   -2.5490 h1        1 MOL      0.232697
    173 H82        -4.3320   -2.7570   -4.4650 hc        1 MOL      0.036660
    174 H83        -3.4340   -3.9940   -3.7740 hc        1 MOL      0.036660
    175 H84        -2.2940   -2.5730   -5.5040 hc        1 MOL      0.061237
    176 H85        -1.4060   -3.0550   -4.0190 hc        1 MOL      0.061237
    177 N15        -2.3790   -3.3770   -0.8840 n         1 MOL      0.114851
    178 C54        -2.7050   -4.7800   -1.2030 c3        1 MOL     -0.220593
    179 H86        -3.3440   -5.1910   -0.4220 h1        1 MOL      0.081969
    180 H87        -3.2280   -4.8240   -2.1590 h1        1 MOL      0.081969
    181 H88        -1.7870   -5.3630   -1.2640 h1        1 MOL      0.081969
    182 H89        -1.7630   -3.2260   -0.0960 hn        1 MOL      0.182389
    183 Ca1        -0.1230    0.3320   -1.1980 Ca        1 MOL      1.674020
    184 O25        -2.1590    2.0270   -1.7950 oh        1 MOL     -0.888016
    185 H90        -2.3510    2.3370   -2.6750 ho        1 MOL      0.423622
    186 H91        -1.9170    2.8070   -1.3080 ho        1 MOL      0.423622
@<TRIPOS>BOND
     1    1    2 1   
     2    1    4 1   
     3    1    5 1   
     4    1    6 1   
     5    2    3 2   
     6    2    7 1   
     7    7    8 1   
     8    7   15 1   
     9    8    9 1   
    10    8   11 1   
    11    8   16 1   
    12    9   10 2   
    13    9   19 1   
    14   11   12 1   
    15   11   17 1   
    16   11   18 1   
    17   12   13 1   
    18   12   14 1   
    19   19   20 1   
    20   19   28 1   
    21   20   21 1   
    22   20   23 1   
    23   20   29 1   
    24   21   22 2   
    25   21   41 1   
    26   23   24 1   
    27   23   30 1   
    28   23   31 1   
    29   24   25 1   
    30   24   32 1   
    31   24   33 1   
    32   25   26 1   
    33   25   34 1   
    34   25   35 1   
    35   26   27 1   
    36   26   36 1   
    37   26   37 1   
    38   27   38 1   
    39   27   39 1   
    40   27   40 1   
    41   41   42 1   
    42   41   49 1   
    43   42   43 1   
    44   42   45 1   
    45   42   50 1   
    46   43   44 2   
    47   43   53 1   
    48   45   46 1   
    49   45   51 1   
    50   45   52 1   
    51   46   47 1   
    52   46   48 1   
    53   53   54 1   
    54   53   57 1   
    55   54   55 1   
    56   54   58 1   
    57   54   59 1   
    58   55   56 2   
    59   55   60 1   
    60   60   61 1   
    61   60   68 1   
    62   61   62 1   
    63   61   64 1   
    64   61   69 1   
    65   62   63 2   
    66   62   72 1   
    67   64   65 1   
    68   64   70 1   
    69   64   71 1   
    70   65   66 1   
    71   65   67 1   
    72   72   73 1   
    73   72   76 1   
    74   73   74 1   
    75   73   77 1   
    76   73   78 1   
    77   74   75 2   
    78   74   79 1   
    79   79   80 1   
    80   79   86 1   
    81   80   81 1   
    82   80   83 1   
    83   80   87 1   
    84   81   82 2   
    85   81   93 1   
    86   83   84 1   
    87   83   85 1   
    88   83   88 1   
    89   84   90 1   
    90   84   91 1   
    91   84   92 1   
    92   85   89 1   
    93   93   94 1   
    94   93  101 1   
    95   94   95 1   
    96   94   97 1   
    97   94  102 1   
    98   95   96 2   
    99   95  112 1   
   100   97   98 1   
   101   97   99 1   
   102   97  103 1   
   103   98  100 1   
   104   98  104 1   
   105   98  105 1   
   106   99  106 1   
   107   99  107 1   
   108   99  108 1   
   109  100  109 1   
   110  100  110 1   
   111  100  111 1   
   112  112  113 1   
   113  112  119 1   
   114  113  114 1   
   115  113  116 1   
   116  113  120 1   
   117  114  115 2   
   118  114  126 1   
   119  116  117 1   
   120  116  118 1   
   121  116  121 1   
   122  117  123 1   
   123  117  124 1   
   124  117  125 1   
   125  118  122 1   
   126  126  127 1   
   127  126  133 1   
   128  127  128 1   
   129  127  130 1   
   130  127  134 1   
   131  128  129 2   
   132  128  140 1   
   133  130  131 1   
   134  130  132 1   
   135  130  135 1   
   136  131  137 1   
   137  131  138 1   
   138  131  139 1   
   139  132  136 1   
   140  140  141 1   
   141  140  149 1   
   142  141  142 1   
   143  141  144 1   
   144  141  150 1   
   145  142  143 2   
   146  142  162 1   
   147  144  145 1   
   148  144  151 1   
   149  144  152 1   
   150  145  146 1   
   151  145  153 1   
   152  145  154 1   
   153  146  147 1   
   154  146  155 1   
   155  146  156 1   
   156  147  148 1   
   157  147  157 1   
   158  147  158 1   
   159  148  159 1   
   160  148  160 1   
   161  148  161 1   
   162  162  163 1   
   163  162  171 1   
   164  163  164 1   
   165  163  166 1   
   166  163  172 1   
   167  164  165 2   
   168  164  177 1   
   169  166  167 1   
   170  166  173 1   
   171  166  174 1   
   172  167  168 1   
   173  167  175 1   
   174  167  176 1   
   175  168  169 1   
   176  168  170 1   
   177  177  178 1   
   178  177  182 1   
   179  178  179 1   
   180  178  180 1   
   181  178  181 1   
   182  184  185 1   
   183  184  186 1   
@<TRIPOS>SUBSTRUCTURE
     1 MOL         1 TEMP              0 ****  ****    0 ROOT
