@<TRIPOS>MOLECULE
MOL
  188   182     1     0     0
SMALL
resp


@<TRIPOS>ATOM
      1 C1         -6.2940   -1.6000    4.2080 c3        1 MOL     -0.405501
      2 C2         -6.8190   -1.8340    2.7300 c         1 MOL      0.623044
      3 O1         -6.1050   -1.6030    1.7520 o         1 MOL     -0.497161
      4 H1         -7.1370   -1.6110    4.8980 hc        1 MOL      0.100833
      5 H2         -5.5940   -2.3910    4.4760 hc        1 MOL      0.100833
      6 H3         -5.7910   -0.6340    4.2670 hc        1 MOL      0.100833
      7 N1         -8.0830   -2.2530    2.6630 n         1 MOL     -0.638324
      8 C3         -8.8300   -2.4830    1.4360 c3        1 MOL      0.325050
      9 C4         -8.5250   -1.3980    0.2890 c         1 MOL      0.376405
     10 O2         -7.9250   -1.6570   -0.7650 o         1 MOL     -0.460556
     11 C5         -8.7480   -3.9150    0.9810 c3        1 MOL     -0.242466
     12 C6         -9.7350   -4.2730   -0.1150 c         1 MOL      0.718701
     13 O3        -10.7310   -3.5430   -0.2810 o         1 MOL     -0.664504
     14 O4         -9.6180   -5.3760   -0.6600 o         1 MOL     -0.664504
     15 H4         -8.5210   -2.6520    3.4750 hn        1 MOL      0.349920
     16 H5         -9.8900   -2.3650    1.6620 h1        1 MOL     -0.027243
     17 H6         -8.8950   -4.5680    1.8340 hc        1 MOL      0.064169
     18 H7         -7.7440   -4.0810    0.5760 hc        1 MOL      0.064169
     19 N2         -8.9660   -0.1110    0.3860 n         1 MOL     -0.429407
     20 C7         -8.8580    0.9600   -0.6310 c3        1 MOL      0.028041
     21 C8         -7.4550    1.6450   -0.7460 c         1 MOL      0.550891
     22 O5         -7.4130    2.7240   -1.3290 o         1 MOL     -0.556746
     23 C9         -9.9610    2.0660   -0.4220 c3        1 MOL      0.014476
     24 C10        -9.9240    2.8010    0.9430 c3        1 MOL     -0.138589
     25 C11       -10.7530    4.0860    0.9540 c3        1 MOL      0.116857
     26 C12       -10.9120    4.9100    2.2080 c3        1 MOL      0.009403
     27 N3        -11.4490    6.2740    1.9490 n4        1 MOL     -0.242396
     28 H8         -9.4300    0.0650    1.2740 hn        1 MOL      0.239468
     29 H9         -9.0870    0.5320   -1.6100 h1        1 MOL      0.142672
     30 H10       -10.9230    1.5370   -0.4500 hc        1 MOL      0.025792
     31 H11        -9.8710    2.7560   -1.2540 hc        1 MOL      0.025792
     32 H12        -8.8910    3.1620    0.9910 hc        1 MOL      0.042224
     33 H13       -10.1930    2.1310    1.7530 hc        1 MOL      0.042224
     34 H14       -11.7250    3.8820    0.5060 hc        1 MOL     -0.000844
     35 H15       -10.3150    4.6660    0.1420 hc        1 MOL     -0.000844
     36 H16        -9.8860    4.9480    2.5650 hx        1 MOL      0.067219
     37 H17       -11.4480    4.3610    2.9970 hx        1 MOL      0.067219
     38 H18       -10.8830    6.7600    1.2680 hn        1 MOL      0.232124
     39 H19       -12.4270    6.1750    1.7130 hn        1 MOL      0.232124
     40 H20       -11.5370    6.8720    2.7500 hn        1 MOL      0.232124
     41 N4         -6.3220    1.0470   -0.3020 n         1 MOL     -0.426441
     42 C13        -4.9920    1.6660   -0.3560 c3        1 MOL      0.147409
     43 C14        -4.5650    1.6630   -1.8750 c         1 MOL      0.558263
     44 O6         -4.6270    0.6370   -2.5530 o         1 MOL     -0.483577
     45 C15        -4.0730    0.9500    0.5840 c3        1 MOL     -0.248255
     46 C16        -2.5730    1.2910    0.4500 c         1 MOL      0.718572
     47 O7         -1.9020    1.7020    1.4170 o         1 MOL     -0.772401
     48 O8         -2.0030    1.0970   -0.6600 o         1 MOL     -0.772401
     49 H21        -6.4990    0.3410    0.4060 hn        1 MOL      0.230236
     50 H22        -5.0660    2.6960   -0.0120 h1        1 MOL     -0.000426
     51 H23        -4.1620   -0.1150    0.3800 hc        1 MOL      0.096748
     52 H24        -4.4190    1.1980    1.5900 hc        1 MOL      0.096748
     53 N5         -4.0530    2.7790   -2.4090 n         1 MOL     -0.429369
     54 C17        -3.7170    3.0370   -3.8340 c3        1 MOL     -0.057866
     55 C18        -2.6160    2.2280   -4.4700 c         1 MOL      0.680422
     56 O9         -2.4420    2.5790   -5.6180 o         1 MOL     -0.590272
     57 H25        -3.9130    3.4650   -1.6850 hn        1 MOL      0.235555
     58 H26        -3.4630    4.0750   -4.0610 h1        1 MOL      0.093091
     59 H27        -4.5200    2.7910   -4.5270 h1        1 MOL      0.093091
     60 N6         -2.0110    1.2310   -3.8490 n         1 MOL     -0.536301
     61 C19        -1.0610    0.2530   -4.4430 c3        1 MOL      0.128055
     62 C20        -1.2120   -1.1700   -3.8980 c         1 MOL      0.320400
     63 O10        -0.3590   -2.0330   -4.1090 o         1 MOL     -0.478597
     64 C21         0.3920    0.8220   -4.5950 c3        1 MOL     -0.340303
     65 C22         1.0710    0.8780   -3.2480 c         1 MOL      0.605180
     66 N7          1.9390   -0.0230   -2.9140 n         1 MOL     -0.682483
     67 O11         0.7960    1.7580   -2.4210 o         1 MOL     -0.597935
     68 H28        -2.2170    1.1630   -2.8590 hn        1 MOL      0.243238
     69 H29        -1.3620    0.1040   -5.4850 h1        1 MOL      0.117554
     70 H30         0.2650    1.8040   -5.0520 hc        1 MOL      0.140604
     71 H31         0.8420    0.1510   -5.3170 hc        1 MOL      0.140604
     72 H32         2.1120   -0.8660   -3.4420 hn        1 MOL      0.362588
     73 H33         2.3510    0.1610   -2.0090 hn        1 MOL      0.362588
     74 N8         -2.3410   -1.4040   -3.2030 n         1 MOL     -0.041237
     75 C23        -2.6880   -2.6220   -2.6140 c3        1 MOL     -0.286467
     76 C24        -2.2200   -2.8830   -1.1920 c         1 MOL      0.696621
     77 O12        -2.4320   -3.9780   -0.7150 o         1 MOL     -0.566671
     78 H34        -3.0080   -0.6520   -3.1470 hn        1 MOL      0.154592
     79 H35        -2.2090   -3.4570   -3.1350 h1        1 MOL      0.130630
     80 H36        -3.7750   -2.7720   -2.5800 h1        1 MOL      0.130630
     81 N9         -1.4830   -1.9920   -0.5200 n         1 MOL     -0.471439
     82 C25        -0.7740   -2.2390    0.6690 c3        1 MOL     -0.049249
     83 C26         0.5780   -1.5550    0.5570 c         1 MOL      0.353947
     84 O13         0.7360   -0.3730    0.3730 o         1 MOL     -0.551963
     85 C27        -1.5930   -1.9410    1.9160 c3        1 MOL     -0.159802
     86 C28        -0.9360   -2.1000    3.2780 ca        1 MOL     -0.037412
     87 C29        -0.7840   -3.3750    3.8650 ca        1 MOL     -0.067210
     88 C30        -0.3890   -0.9370    3.9100 ca        1 MOL     -0.067210
     89 C31        -0.1940   -3.4420    5.1010 ca        1 MOL     -0.330907
     90 C32         0.0980   -1.0810    5.2050 ca        1 MOL     -0.330907
     91 C33         0.2890   -2.3400    5.7980 ca        1 MOL      0.421964
     92 O14         1.0250   -2.3610    6.9170 oh        1 MOL     -0.499945
     93 H37        -1.5090   -1.0470   -0.8950 hn        1 MOL      0.341271
     94 H38        -0.4850   -3.2910    0.6740 h1        1 MOL      0.077004
     95 H39        -2.5110   -2.5220    1.9220 hc        1 MOL      0.128488
     96 H40        -1.9920   -0.9350    1.8260 hc        1 MOL      0.128488
     97 H41        -1.0530   -4.2480    3.3030 ha        1 MOL      0.138924
     98 H42        -0.5280    0.0410    3.4880 ha        1 MOL      0.138924
     99 H43         0.0740   -4.4000    5.5150 ha        1 MOL      0.151431
    100 H44         0.4060   -0.1660    5.7050 ha        1 MOL      0.151431
    101 H45         1.1620   -1.4940    7.3010 ho        1 MOL      0.374846
    102 N10         1.6190   -2.3780    0.8720 n         1 MOL     -0.089166
    103 C34         3.0330   -1.9110    0.9600 c3        1 MOL     -0.006754
    104 C35         3.6920   -1.8330   -0.3720 c         1 MOL      0.053074
    105 O15         4.5200   -0.9860   -0.6380 o         1 MOL     -0.363442
    106 C36         3.7310   -2.5990    2.1130 c3        1 MOL      0.292503
    107 C37         3.2380   -2.1920    3.4940 c3        1 MOL     -0.009143
    108 C38         5.2310   -2.2750    1.9740 c3        1 MOL     -0.465140
    109 C39         3.6040   -3.1370    4.6260 c3        1 MOL     -0.036916
    110 H46         1.3890   -3.2900    1.2410 hn        1 MOL      0.181491
    111 H47         2.9610   -0.8480    1.1930 h1        1 MOL      0.046661
    112 H48         3.6380   -3.6730    2.0180 hc        1 MOL     -0.056864
    113 H49         2.1620   -2.0050    3.5100 hc        1 MOL     -0.013341
    114 H50         3.6940   -1.2230    3.7130 hc        1 MOL     -0.013341
    115 H51         5.6040   -2.6950    1.0370 hc        1 MOL      0.120726
    116 H52         5.3030   -1.1970    1.9960 hc        1 MOL      0.120726
    117 H53         5.8460   -2.7210    2.7620 hc        1 MOL      0.120726
    118 H54         4.6740   -3.0770    4.7890 hc        1 MOL      0.015385
    119 H55         3.0710   -2.8650    5.5330 hc        1 MOL      0.015385
    120 H56         3.3470   -4.1600    4.3400 hc        1 MOL      0.015385
    121 N11         3.2260   -2.7590   -1.2170 n         1 MOL     -0.039187
    122 C40         3.6810   -2.9050   -2.6810 c3        1 MOL     -0.049258
    123 C41         5.1880   -2.8780   -2.8770 c         1 MOL      0.405981
    124 O16         5.7540   -2.4740   -3.9070 o         1 MOL     -0.486898
    125 C42         3.3000   -4.2730   -3.2590 c3        1 MOL      0.192877
    126 O17         1.8650   -4.2570   -3.2070 oh        1 MOL     -0.589620
    127 H57         2.5330   -3.4030   -0.8880 hn        1 MOL      0.141597
    128 H58         3.2420   -2.0790   -3.2370 h1        1 MOL      0.076915
    129 H59         3.7470   -5.0950   -2.7000 h1        1 MOL      0.038381
    130 H60         3.6570   -4.4090   -4.2750 h1        1 MOL      0.038381
    131 H61         1.6110   -5.1690   -3.3980 ho        1 MOL      0.404232
    132 N12         5.9080   -3.3210   -1.8360 n         1 MOL     -0.351529
    133 C43         7.3510   -3.2620   -1.6360 c3        1 MOL      0.216566
    134 C44         7.9750   -1.8430   -1.5520 c         1 MOL      0.507202
    135 O18         9.1910   -1.8030   -1.5260 o         1 MOL     -0.532105
    136 C45         8.0700   -4.4220   -2.3620 c3        1 MOL     -0.407864
    137 H62         5.4130   -3.8950   -1.1650 hn        1 MOL      0.220037
    138 H63         7.5470   -3.5290   -0.5920 h1        1 MOL      0.068391
    139 H64         7.6810   -5.4410   -2.3150 hc        1 MOL      0.113499
    140 H65         8.2070   -4.1780   -3.4150 hc        1 MOL      0.113499
    141 H66         8.9990   -4.5180   -1.8180 hc        1 MOL      0.113499
    142 N13         7.1940   -0.7620   -1.3870 n         1 MOL     -0.512083
    143 C46         7.7220    0.6020   -1.4410 c3        1 MOL      0.332436
    144 C47         8.3010    1.0960   -0.0850 c         1 MOL      0.501319
    145 O19         7.9670    0.5630    0.9700 o         1 MOL     -0.455780
    146 C48         6.6700    1.4780   -2.0090 c3        1 MOL     -0.099798
    147 H67         6.1890   -0.8150   -1.2740 hn        1 MOL      0.236177
    148 H68         8.5450    0.6550   -2.1510 h1        1 MOL     -0.017451
    149 H69         6.3020    1.1440   -2.9790 hc        1 MOL      0.020116
    150 H70         5.8020    1.5140   -1.3520 hc        1 MOL      0.020116
    151 H71         7.0680    2.4920   -2.1020 hc        1 MOL      0.020116
    152 N14         9.1890    2.1170   -0.2460 n         1 MOL     -0.598396
    153 C49         9.7560    2.8330    0.9310 c3        1 MOL      0.002209
    154 C50        10.5440    1.8770    1.9110 c         1 MOL      0.364723
    155 O20        10.7060    2.2150    3.0900 o         1 MOL     -0.488600
    156 C51         8.8300    3.8770    1.7250 c3        1 MOL      0.390244
    157 C52         7.5050    4.2710    0.9990 c3        1 MOL     -0.397900
    158 C53         6.8050    5.4750    1.6760 c         1 MOL      0.722172
    159 O21         7.4150    6.5340    1.8150 o         1 MOL     -0.680532
    160 O22         5.5800    5.4240    1.9480 o         1 MOL     -0.680532
    161 H72         9.4480    2.5170   -1.1400 hn        1 MOL      0.344583
    162 H73        10.5650    3.3800    0.4420 h1        1 MOL      0.058151
    163 H74         9.4730    4.7290    1.9690 hc        1 MOL     -0.049966
    164 H75         8.6470    3.4960    2.7330 hc        1 MOL     -0.049966
    165 H76         6.8280    3.4170    0.9210 hc        1 MOL      0.031827
    166 H77         7.7740    4.5070   -0.0320 hc        1 MOL      0.031827
    167 N15        10.9250    0.6600    1.5020 n         1 MOL     -0.195761
    168 C54        11.2530   -0.4190    2.4180 c3        1 MOL     -0.298733
    169 H78        10.4340   -0.5600    3.1220 h1        1 MOL      0.124745
    170 H79        11.4100   -1.3390    1.8550 h1        1 MOL      0.124745
    171 H80        12.1620   -0.1680    2.9650 h1        1 MOL      0.124745
    172 H81        10.8240    0.4490    0.5210 hn        1 MOL      0.207642
    173 Ca1         0.3390    2.2720    0.0960 Ca        1 MOL      1.780032
    174 O23         3.0260    1.7540   -0.1900 oh        1 MOL     -0.800040
    175 H82         3.5220    2.1680    0.5090 ho        1 MOL      0.402861
    176 H83         3.6580    1.1750   -0.6200 ho        1 MOL      0.402861
    177 O24        -0.0880    4.6310    1.5020 oh        1 MOL     -0.800040
    178 H84        -0.8780    5.1540    1.6800 ho        1 MOL      0.402861
    179 H85         0.5050    4.8500    2.2270 ho        1 MOL      0.402861
    180 O25         1.4360    2.0110    2.4500 oh        1 MOL     -0.800040
    181 H86         2.3670    2.2280    2.5350 ho        1 MOL      0.402861
    182 H87         1.0950    2.0630    3.3450 ho        1 MOL      0.402861
    183 O26         1.9590    4.4450   -1.0210 oh        1 MOL     -0.800040
    184 H88         2.5550    5.1140   -0.6910 ho        1 MOL      0.402861
    185 H89         2.3390    4.1610   -1.8470 ho        1 MOL      0.402861
    186 O27        -0.9230    4.0940   -1.2700 oh        1 MOL     -0.800040
    187 H90        -0.9270    4.3540   -2.1930 ho        1 MOL      0.402861
    188 H91        -1.7020    4.5140   -0.9080 ho        1 MOL      0.402861
@<TRIPOS>BOND
     1    1    2 1   
     2    1    4 1   
     3    1    5 1   
     4    1    6 1   
     5    2    3 2   
     6    2    7 1   
     7    7    8 1   
     8    7   15 1   
     9    8    9 1   
    10    8   11 1   
    11    8   16 1   
    12    9   10 2   
    13    9   19 1   
    14   11   12 1   
    15   11   17 1   
    16   11   18 1   
    17   12   13 1   
    18   12   14 1   
    19   19   20 1   
    20   19   28 1   
    21   20   21 1   
    22   20   23 1   
    23   20   29 1   
    24   21   22 2   
    25   21   41 1   
    26   23   24 1   
    27   23   30 1   
    28   23   31 1   
    29   24   25 1   
    30   24   32 1   
    31   24   33 1   
    32   25   26 1   
    33   25   34 1   
    34   25   35 1   
    35   26   27 1   
    36   26   36 1   
    37   26   37 1   
    38   27   38 1   
    39   27   39 1   
    40   27   40 1   
    41   41   42 1   
    42   41   49 1   
    43   42   43 1   
    44   42   45 1   
    45   42   50 1   
    46   43   44 2   
    47   43   53 1   
    48   45   46 1   
    49   45   51 1   
    50   45   52 1   
    51   46   47 1   
    52   46   48 1   
    53   53   54 1   
    54   53   57 1   
    55   54   55 1   
    56   54   58 1   
    57   54   59 1   
    58   55   56 2   
    59   55   60 1   
    60   60   61 1   
    61   60   68 1   
    62   61   62 1   
    63   61   64 1   
    64   61   69 1   
    65   62   63 2   
    66   62   74 1   
    67   64   65 1   
    68   64   70 1   
    69   64   71 1   
    70   65   66 1   
    71   65   67 2   
    72   66   72 1   
    73   66   73 1   
    74   74   75 1   
    75   74   78 1   
    76   75   76 1   
    77   75   79 1   
    78   75   80 1   
    79   76   77 2   
    80   76   81 1   
    81   81   82 1   
    82   81   93 1   
    83   82   83 1   
    84   82   85 1   
    85   82   94 1   
    86   83   84 2   
    87   83  102 1   
    88   85   86 1   
    89   85   95 1   
    90   85   96 1   
    91   86   87 ar  
    92   86   88 ar  
    93   87   89 ar  
    94   87   97 1   
    95   88   90 ar  
    96   88   98 1   
    97   89   91 ar  
    98   89   99 1   
    99   90   91 ar  
   100   90  100 1   
   101   91   92 1   
   102   92  101 1   
   103  102  103 1   
   104  102  110 1   
   105  103  104 1   
   106  103  106 1   
   107  103  111 1   
   108  104  105 2   
   109  104  121 1   
   110  106  107 1   
   111  106  108 1   
   112  106  112 1   
   113  107  109 1   
   114  107  113 1   
   115  107  114 1   
   116  108  115 1   
   117  108  116 1   
   118  108  117 1   
   119  109  118 1   
   120  109  119 1   
   121  109  120 1   
   122  121  122 1   
   123  121  127 1   
   124  122  123 1   
   125  122  125 1   
   126  122  128 1   
   127  123  124 2   
   128  123  132 1   
   129  125  126 1   
   130  125  129 1   
   131  125  130 1   
   132  126  131 1   
   133  132  133 1   
   134  132  137 1   
   135  133  134 1   
   136  133  136 1   
   137  133  138 1   
   138  134  135 2   
   139  134  142 1   
   140  136  139 1   
   141  136  140 1   
   142  136  141 1   
   143  142  143 1   
   144  142  147 1   
   145  143  144 1   
   146  143  146 1   
   147  143  148 1   
   148  144  145 2   
   149  144  152 1   
   150  146  149 1   
   151  146  150 1   
   152  146  151 1   
   153  152  153 1   
   154  152  161 1   
   155  153  154 1   
   156  153  156 1   
   157  153  162 1   
   158  154  155 2   
   159  154  167 1   
   160  156  157 1   
   161  156  163 1   
   162  156  164 1   
   163  157  158 1   
   164  157  165 1   
   165  157  166 1   
   166  158  159 1   
   167  158  160 1   
   168  167  168 1   
   169  167  172 1   
   170  168  169 1   
   171  168  170 1   
   172  168  171 1   
   173  174  175 1   
   174  174  176 1   
   175  177  178 1   
   176  177  179 1   
   177  180  181 1   
   178  180  182 1   
   179  183  184 1   
   180  183  185 1   
   181  186  187 1   
   182  186  188 1   
@<TRIPOS>SUBSTRUCTURE
     1 MOL         1 TEMP              0 ****  ****    0 ROOT
