@<TRIPOS>MOLECULE
MOL
  192   187     1     0     0
SMALL
resp


@<TRIPOS>ATOM
      1 C1         11.8380    5.4570   -1.8250 c3        1 MOL     -0.458961
      2 C2         11.7040    4.1190   -1.0710 c         1 MOL      0.706652
      3 O1         12.7450    3.5610   -0.7090 o         1 MOL     -0.551269
      4 H1         12.6520    5.3860   -2.5470 hc        1 MOL      0.121336
      5 H2         10.9070    5.6750   -2.3490 hc        1 MOL      0.121336
      6 H3         12.0520    6.2550   -1.1140 hc        1 MOL      0.121336
      7 N1         10.5030    3.6720   -0.7370 n         1 MOL     -0.266908
      8 C3         10.2990    2.5700    0.2690 c3        1 MOL     -0.830679
      9 C4          9.0130    1.7230    0.0160 c         1 MOL      0.952203
     10 O2          7.9450    2.2710   -0.3470 o         1 MOL     -0.676315
     11 C5         10.4670    3.0000    1.6940 c3        1 MOL      0.207649
     12 C6          9.6260    4.1520    2.1760 c         1 MOL      0.606069
     13 O3          8.5970    4.5970    1.5740 o         1 MOL     -0.682233
     14 O4          9.9840    4.6010    3.2860 o         1 MOL     -0.682233
     15 H4          9.6560    4.0840   -1.0730 hn        1 MOL      0.152691
     16 H5         11.1070    1.8690    0.0570 h1        1 MOL      0.216670
     17 H6         11.5180    3.2630    1.7440 hc        1 MOL      0.055344
     18 H7         10.3550    2.1120    2.3040 hc        1 MOL      0.055344
     19 N2          9.0570    0.4030   -0.0040 n         1 MOL     -0.529260
     20 C7          8.0910   -0.4820   -0.6210 c3        1 MOL      0.246988
     21 C8          7.0290   -0.9530    0.3750 c         1 MOL      0.402250
     22 O5          6.7630   -2.1690    0.4880 o         1 MOL     -0.499510
     23 C9          8.8300   -1.6300   -1.3330 c3        1 MOL     -0.144585
     24 C10         8.1150   -2.2490   -2.5130 c3        1 MOL     -0.000162
     25 C11         8.9900   -3.3180   -3.2180 c3        1 MOL     -0.020331
     26 C12         8.3730   -3.9510   -4.4770 c3        1 MOL      0.016478
     27 N3          7.0400   -4.4440   -4.1980 n4        1 MOL     -0.162254
     28 H8          9.9870    0.0300    0.0550 hn        1 MOL      0.304568
     29 H9          7.5710    0.0180   -1.4350 h1        1 MOL     -0.012966
     30 H10         9.0250   -2.4680   -0.6710 hc        1 MOL      0.049649
     31 H11         9.8190   -1.2850   -1.6390 hc        1 MOL      0.049649
     32 H12         7.8290   -1.4460   -3.1940 hc        1 MOL      0.021224
     33 H13         7.2180   -2.7880   -2.2060 hc        1 MOL      0.021224
     34 H14         9.2780   -4.1620   -2.5700 hc        1 MOL      0.054356
     35 H15         9.9070   -2.8300   -3.5540 hc        1 MOL      0.054356
     36 H16         9.0170   -4.8150   -4.6800 hx        1 MOL      0.063858
     37 H17         8.3210   -3.2860   -5.3340 hx        1 MOL      0.063858
     38 H18         6.3540   -3.6950   -4.1340 hn        1 MOL      0.259704
     39 H19         6.7490   -5.0240   -4.9740 hn        1 MOL      0.259704
     40 H20         6.9580   -5.0340   -3.3880 hn        1 MOL      0.259704
     41 N4          6.2960   -0.0040    0.9950 n         1 MOL     -0.415218
     42 C13         4.9460   -0.2470    1.6560 c3        1 MOL      0.262653
     43 C14         3.7270   -0.2630    0.7120 c         1 MOL      0.340897
     44 O6          3.8330    0.1950   -0.4480 o         1 MOL     -0.503339
     45 C15         4.8610    0.7630    2.7700 c3        1 MOL     -0.316454
     46 C16         5.2830    2.1610    2.3380 c         1 MOL      0.735659
     47 O7          4.5890    2.8470    1.5700 o         1 MOL     -0.718113
     48 O8          6.4080    2.6270    2.6170 o         1 MOL     -0.718113
     49 H21         6.6190    0.9210    0.7580 hn        1 MOL      0.204716
     50 H22         4.9520   -1.2510    2.1060 h1        1 MOL      0.112984
     51 H23         5.5380    0.3890    3.5370 hc        1 MOL      0.083955
     52 H24         3.8480    0.8380    3.1400 hc        1 MOL      0.083955
     53 N5          2.5180   -0.6160    1.1260 n         1 MOL     -0.369857
     54 C17         2.2180   -1.3410    2.4360 c3        1 MOL     -0.017853
     55 C18         2.8520   -2.8110    2.5460 c         1 MOL      0.319081
     56 O9          3.6260   -3.2530    1.6830 o         1 MOL     -0.471959
     57 H25         1.7650   -0.4240    0.4870 hn        1 MOL      0.330061
     58 H26         1.1350   -1.4920    2.5270 h1        1 MOL      0.081132
     59 H27         2.4610   -0.7810    3.3340 h1        1 MOL      0.081132
     60 N6          2.3830   -3.6260    3.5130 n         1 MOL     -0.247577
     61 C19         2.6480   -5.0860    3.5550 c3        1 MOL     -0.009366
     62 C20         1.8900   -5.7110    2.3630 c         1 MOL      0.425711
     63 O10         2.5130   -6.4090    1.5520 o         1 MOL     -0.534240
     64 C21         2.3300   -5.6910    4.9130 c3        1 MOL     -0.271560
     65 C22         1.0080   -5.3540    5.6290 c         1 MOL      0.647296
     66 O11         0.0060   -4.8090    5.0560 o         1 MOL     -0.656502
     67 O12         1.0100   -5.6430    6.8120 o         1 MOL     -0.656502
     68 H28         1.8240   -3.3010    4.2890 hn        1 MOL      0.238960
     69 H29         3.7090   -5.2750    3.3880 h1        1 MOL      0.099284
     70 H30         3.1250   -5.4360    5.6170 hc        1 MOL      0.090871
     71 H31         2.5700   -6.7500    4.8130 hc        1 MOL      0.090871
     72 N7          0.5480   -5.4850    2.2320 n         1 MOL     -0.172984
     73 C23        -0.3790   -5.7090    1.1510 c3        1 MOL     -0.125430
     74 C24        -0.1170   -4.8350   -0.0910 c         1 MOL      0.523955
     75 O13        -0.8540   -4.9890   -1.0870 o         1 MOL     -0.592486
     76 H32         0.2850   -4.8470    2.9610 hn        1 MOL      0.143056
     77 H33        -1.4040   -5.6030    1.5120 h1        1 MOL      0.101825
     78 H34        -0.2390   -6.7810    0.9580 h1        1 MOL      0.101825
     79 N8          0.8820   -3.9340   -0.1570 n         1 MOL     -0.154722
     80 C25         1.2040   -3.0830   -1.3320 c3        1 MOL      0.138791
     81 C26         0.5130   -1.7040   -1.3110 c         1 MOL      0.344812
     82 O14         0.0600   -1.2780   -0.2760 o         1 MOL     -0.492173
     83 C27         2.6940   -3.0120   -1.5090 c3        1 MOL      0.290203
     84 C28         3.3940   -4.3770   -1.4640 c3        1 MOL     -0.486463
     85 O15         2.9820   -2.4510   -2.7430 oh        1 MOL     -0.590836
     86 H35         1.3450   -3.7930    0.7320 hn        1 MOL      0.082284
     87 H36         0.8550   -3.6450   -2.1990 h1        1 MOL      0.078090
     88 H37         3.1160   -2.4560   -0.6790 h1        1 MOL      0.072225
     89 H38         3.7270   -1.8660   -2.5890 ho        1 MOL      0.336706
     90 H39         4.4400   -4.0920   -1.5460 hc        1 MOL      0.113704
     91 H40         3.1920   -4.9590   -0.5650 hc        1 MOL      0.113704
     92 H41         3.0040   -4.9730   -2.2990 hc        1 MOL      0.113704
     93 N9          0.1450   -1.1440   -2.4990 n         1 MOL     -0.429427
     94 C29        -0.4400    0.1850   -2.6370 c3        1 MOL     -0.138426
     95 C30        -1.8090    0.3720   -1.9360 c         1 MOL      0.540592
     96 O16        -2.1740    1.5250   -1.6540 o         1 MOL     -0.542052
     97 C31        -0.5260    0.6470   -4.1130 c3        1 MOL      0.247609
     98 C32         0.7240    0.2880   -4.9290 c3        1 MOL     -0.142532
     99 C33        -0.8480    2.0670   -4.3210 c3        1 MOL     -0.317058
    100 C34         2.0980    0.5140   -4.4250 c3        1 MOL     -0.022252
    101 H42         0.5270   -1.5980   -3.3100 hn        1 MOL      0.292627
    102 H43         0.2430    0.8480   -2.1080 h1        1 MOL      0.142367
    103 H44        -1.3720    0.1230   -4.5720 hc        1 MOL     -0.001351
    104 H45         0.7290    0.8320   -5.8760 hc        1 MOL      0.029412
    105 H46         0.7240   -0.7700   -5.1820 hc        1 MOL      0.029412
    106 H47        -1.1380    2.1900   -5.3650 hc        1 MOL      0.086146
    107 H48        -1.7550    2.3450   -3.7690 hc        1 MOL      0.086146
    108 H49         0.0520    2.6450   -4.1070 hc        1 MOL      0.086146
    109 H50         2.8280    0.2570   -5.1970 hc        1 MOL      0.004195
    110 H51         2.3060    1.5230   -4.0590 hc        1 MOL      0.004195
    111 H52         2.3890   -0.0990   -3.5780 hc        1 MOL      0.004195
    112 N10        -2.5670   -0.7390   -1.7850 n         1 MOL     -0.282972
    113 C35        -3.8700   -0.7560   -1.0840 c3        1 MOL     -0.126866
    114 C36        -4.9780   -1.4850   -1.8210 c         1 MOL      0.588896
    115 O17        -4.7680   -2.1670   -2.8160 o         1 MOL     -0.545973
    116 C37        -3.6240   -1.4220    0.2690 c3        1 MOL      0.375030
    117 C38        -3.2720   -2.8770    0.1470 c3        1 MOL     -0.413053
    118 O18        -2.6510   -0.7140    0.9830 oh        1 MOL     -0.627006
    119 H53        -2.1990   -1.5390   -2.2840 hn        1 MOL      0.209238
    120 H54        -4.1290    0.2930   -0.9960 h1        1 MOL      0.117768
    121 H55        -4.5270   -1.3290    0.8640 h1        1 MOL      0.044770
    122 H56        -1.7780   -0.8390    0.6060 ho        1 MOL      0.398745
    123 H57        -3.9310   -3.6250    0.5960 hc        1 MOL      0.111163
    124 H58        -3.1010   -3.1900   -0.8880 hc        1 MOL      0.111163
    125 H59        -2.3320   -3.0360    0.6820 hc        1 MOL      0.111163
    126 N11        -6.2310   -1.3650   -1.4080 n         1 MOL     -0.434358
    127 C39        -7.4180   -2.0620   -1.9260 c3        1 MOL      0.049002
    128 C40        -8.4240   -0.9080   -2.2020 c         1 MOL      0.449139
    129 O19        -8.4730   -0.4670   -3.3210 o         1 MOL     -0.528736
    130 C41        -7.9450   -3.1310   -0.9910 c3        1 MOL      0.161448
    131 C42        -9.1300   -3.8700   -1.5250 c3        1 MOL     -0.298497
    132 O20        -8.1930   -2.5620    0.2420 oh        1 MOL     -0.595183
    133 H60        -6.3680   -0.7200   -0.6450 hn        1 MOL      0.222968
    134 H61        -7.2110   -2.5840   -2.8620 h1        1 MOL      0.109360
    135 H62        -7.2240   -3.9380   -0.8870 h1        1 MOL      0.057005
    136 H63        -7.9500   -3.2520    0.8600 ho        1 MOL      0.427857
    137 H64       -10.0020   -3.2200   -1.6370 hc        1 MOL      0.081001
    138 H65        -9.1040   -4.2790   -2.5390 hc        1 MOL      0.081001
    139 H66        -9.4590   -4.6020   -0.7960 hc        1 MOL      0.081001
    140 N12        -9.0680   -0.3270   -1.1410 n         1 MOL     -0.115015
    141 C43        -9.8620    0.9580   -1.3080 c3        1 MOL     -0.049558
    142 C44        -9.3740    1.8840   -0.2020 c         1 MOL      0.264503
    143 O21        -8.9440    1.5180    0.9010 o         1 MOL     -0.451704
    144 C45       -11.3830    0.6470   -1.2730 c3        1 MOL     -0.415914
    145 C46       -11.9100   -0.0400    0.0040 c3        1 MOL      0.176220
    146 C47       -13.3410   -0.5080   -0.1650 c3        1 MOL      0.006604
    147 C48       -13.9930   -1.1810    1.0120 c3        1 MOL      0.201547
    148 N13       -15.4590   -1.2790    0.9230 n4        1 MOL     -0.375737
    149 H67        -8.9210   -0.8470   -0.2870 hn        1 MOL      0.174973
    150 H68        -9.4870    1.4490   -2.2030 h1        1 MOL      0.115688
    151 H69       -11.5970   -0.0090   -2.1180 hc        1 MOL      0.130591
    152 H70       -11.9800    1.5620   -1.3440 hc        1 MOL      0.130591
    153 H71       -11.7940    0.5900    0.8940 hc        1 MOL      0.015010
    154 H72       -11.3420   -0.9610    0.0990 hc        1 MOL      0.015010
    155 H73       -13.3880   -1.2450   -0.9570 hc        1 MOL     -0.010320
    156 H74       -13.9570    0.3500   -0.4280 hc        1 MOL     -0.010320
    157 H75       -13.6820   -0.6390    1.9120 hx        1 MOL      0.021004
    158 H76       -13.5450   -2.1640    1.1190 hx        1 MOL      0.021004
    159 H77       -15.8830   -1.9370    1.5630 hn        1 MOL      0.291836
    160 H78       -15.8100   -0.3680    1.1610 hn        1 MOL      0.291836
    161 H79       -15.7330   -1.6250    0.0140 hn        1 MOL      0.291836
    162 N14        -9.5120    3.2050   -0.4060 n         1 MOL     -0.129381
    163 C49        -9.1600    4.1290    0.7030 c3        1 MOL      0.094793
    164 C50        -7.6660    4.3200    0.9630 c         1 MOL      0.397878
    165 O22        -7.2260    4.2130    2.1170 o         1 MOL     -0.512474
    166 C51       -10.0020    5.4020    0.5120 c3        1 MOL      0.059317
    167 C52       -11.5290    5.4090    0.9530 c3        1 MOL     -0.264520
    168 C53       -11.7320    5.3670    2.4680 c         1 MOL      0.791963
    169 O23       -11.0610    4.6660    3.2110 o         1 MOL     -0.661498
    170 O24       -12.7340    5.9450    2.9660 o         1 MOL     -0.661498
    171 H80        -9.9620    3.5650   -1.2250 hn        1 MOL      0.197077
    172 H81        -9.4750    3.7720    1.6810 h1        1 MOL      0.096749
    173 H82       -10.0620    5.5810   -0.5660 hc        1 MOL     -0.008669
    174 H83        -9.5380    6.2340    1.0400 hc        1 MOL     -0.008669
    175 H84       -12.0440    4.5450    0.5270 hc        1 MOL      0.023667
    176 H85       -11.8980    6.3300    0.5060 hc        1 MOL      0.023667
    177 N15        -6.7750    4.2600   -0.0060 n         1 MOL     -0.372863
    178 C54        -6.9670    4.8480   -1.3740 c3        1 MOL      0.063909
    179 H86        -5.9980    5.1180   -1.7930 h1        1 MOL      0.014819
    180 H87        -7.4500    4.1160   -2.0200 h1        1 MOL      0.014819
    181 H88        -7.5920    5.7390   -1.3030 h1        1 MOL      0.014819
    182 H89        -5.8670    4.0030    0.3450 hn        1 MOL      0.290173
    183 Ca1         6.3970    4.5640    0.4580 Ca        1 MOL      1.707507
    184 O25         3.8880    5.3960   -0.0340 oh        1 MOL     -0.831896
    185 H90         3.2220    4.8600   -0.4920 ho        1 MOL      0.420085
    186 H91         3.3730    6.0320    0.4500 ho        1 MOL      0.420085
    187 O26         5.7780    6.2800    2.3090 oh        1 MOL     -0.831896
    188 H92         5.9870    7.1810    2.5460 ho        1 MOL      0.420085
    189 H93         5.9300    5.7720    3.1050 ho        1 MOL      0.420085
    190 O27         5.3770    3.1260   -1.7390 oh        1 MOL     -0.831896
    191 H94         5.4550    2.1890   -1.8870 ho        1 MOL      0.420085
    192 H95         5.7840    3.5270   -2.5100 ho        1 MOL      0.420085
@<TRIPOS>BOND
     1    1    2 1   
     2    1    4 1   
     3    1    5 1   
     4    1    6 1   
     5    2    3 2   
     6    2    7 1   
     7    7    8 1   
     8    7   15 1   
     9    8    9 1   
    10    8   11 1   
    11    8   16 1   
    12    9   10 2   
    13    9   19 1   
    14   11   12 1   
    15   11   17 1   
    16   11   18 1   
    17   12   13 1   
    18   12   14 1   
    19   19   20 1   
    20   19   28 1   
    21   20   21 1   
    22   20   23 1   
    23   20   29 1   
    24   21   22 2   
    25   21   41 1   
    26   23   24 1   
    27   23   30 1   
    28   23   31 1   
    29   24   25 1   
    30   24   32 1   
    31   24   33 1   
    32   25   26 1   
    33   25   34 1   
    34   25   35 1   
    35   26   27 1   
    36   26   36 1   
    37   26   37 1   
    38   27   38 1   
    39   27   39 1   
    40   27   40 1   
    41   41   42 1   
    42   41   49 1   
    43   42   43 1   
    44   42   45 1   
    45   42   50 1   
    46   43   44 2   
    47   43   53 1   
    48   45   46 1   
    49   45   51 1   
    50   45   52 1   
    51   46   47 1   
    52   46   48 1   
    53   53   54 1   
    54   53   57 1   
    55   54   55 1   
    56   54   58 1   
    57   54   59 1   
    58   55   56 2   
    59   55   60 1   
    60   60   61 1   
    61   60   68 1   
    62   61   62 1   
    63   61   64 1   
    64   61   69 1   
    65   62   63 2   
    66   62   72 1   
    67   64   65 1   
    68   64   70 1   
    69   64   71 1   
    70   65   66 1   
    71   65   67 1   
    72   72   73 1   
    73   72   76 1   
    74   73   74 1   
    75   73   77 1   
    76   73   78 1   
    77   74   75 2   
    78   74   79 1   
    79   79   80 1   
    80   79   86 1   
    81   80   81 1   
    82   80   83 1   
    83   80   87 1   
    84   81   82 2   
    85   81   93 1   
    86   83   84 1   
    87   83   85 1   
    88   83   88 1   
    89   84   90 1   
    90   84   91 1   
    91   84   92 1   
    92   85   89 1   
    93   93   94 1   
    94   93  101 1   
    95   94   95 1   
    96   94   97 1   
    97   94  102 1   
    98   95   96 2   
    99   95  112 1   
   100   97   98 1   
   101   97   99 1   
   102   97  103 1   
   103   98  100 1   
   104   98  104 1   
   105   98  105 1   
   106   99  106 1   
   107   99  107 1   
   108   99  108 1   
   109  100  109 1   
   110  100  110 1   
   111  100  111 1   
   112  112  113 1   
   113  112  119 1   
   114  113  114 1   
   115  113  116 1   
   116  113  120 1   
   117  114  115 2   
   118  114  126 1   
   119  116  117 1   
   120  116  118 1   
   121  116  121 1   
   122  117  123 1   
   123  117  124 1   
   124  117  125 1   
   125  118  122 1   
   126  126  127 1   
   127  126  133 1   
   128  127  128 1   
   129  127  130 1   
   130  127  134 1   
   131  128  129 2   
   132  128  140 1   
   133  130  131 1   
   134  130  132 1   
   135  130  135 1   
   136  131  137 1   
   137  131  138 1   
   138  131  139 1   
   139  132  136 1   
   140  140  141 1   
   141  140  149 1   
   142  141  142 1   
   143  141  144 1   
   144  141  150 1   
   145  142  143 2   
   146  142  162 1   
   147  144  145 1   
   148  144  151 1   
   149  144  152 1   
   150  145  146 1   
   151  145  153 1   
   152  145  154 1   
   153  146  147 1   
   154  146  155 1   
   155  146  156 1   
   156  147  148 1   
   157  147  157 1   
   158  147  158 1   
   159  148  159 1   
   160  148  160 1   
   161  148  161 1   
   162  162  163 1   
   163  162  171 1   
   164  163  164 1   
   165  163  166 1   
   166  163  172 1   
   167  164  165 2   
   168  164  177 1   
   169  166  167 1   
   170  166  173 1   
   171  166  174 1   
   172  167  168 1   
   173  167  175 1   
   174  167  176 1   
   175  168  169 1   
   176  168  170 1   
   177  177  178 1   
   178  177  182 1   
   179  178  179 1   
   180  178  180 1   
   181  178  181 1   
   182  184  185 1   
   183  184  186 1   
   184  187  188 1   
   185  187  189 1   
   186  190  191 1   
   187  190  192 1   
@<TRIPOS>SUBSTRUCTURE
     1 MOL         1 TEMP              0 ****  ****    0 ROOT
