@<TRIPOS>MOLECULE
MOL
  192   187     1     0     0
SMALL
resp


@<TRIPOS>ATOM
      1 C1         -5.5920   -4.4460    3.2130 c3        1 MOL     -0.446267
      2 C2         -4.5260   -3.8840    2.2690 c         1 MOL      0.871308
      3 O1         -4.0280   -2.8130    2.6130 o         1 MOL     -0.545171
      4 H1         -5.2120   -4.4390    4.2350 hc        1 MOL      0.097961
      5 H2         -6.4900   -3.8320    3.1560 hc        1 MOL      0.097961
      6 H3         -5.8320   -5.4690    2.9220 hc        1 MOL      0.097961
      7 N1         -4.2820   -4.4420    1.0630 n         1 MOL     -1.033548
      8 C3         -3.3850   -3.8180    0.0790 c3        1 MOL      0.096575
      9 C4         -1.9350   -3.9340    0.4760 c         1 MOL      0.637582
     10 O2         -1.1970   -2.9680    0.1460 o         1 MOL     -0.577841
     11 C5         -3.9130   -2.3980   -0.2960 c3        1 MOL     -0.130067
     12 C6         -5.4160   -2.4630   -0.6360 c         1 MOL      0.621689
     13 O3         -5.9930   -3.3400   -1.3400 o         1 MOL     -0.699727
     14 O4         -6.1730   -1.5050   -0.3650 o         1 MOL     -0.699727
     15 H4         -4.6580   -5.3460    0.8270 hn        1 MOL      0.446186
     16 H5         -3.4340   -4.3480   -0.8770 h1        1 MOL      0.084289
     17 H6         -3.3260   -2.1540   -1.1820 hc        1 MOL      0.090862
     18 H7         -3.5960   -1.8110    0.5590 hc        1 MOL      0.090862
     19 N2         -1.5050   -4.9750    1.1690 n         1 MOL     -0.563261
     20 C7         -0.0980   -5.0870    1.5660 c3        1 MOL      0.076873
     21 C8          0.4710   -6.3320    0.8700 c         1 MOL      0.581282
     22 O5          0.0190   -7.3810    1.2310 o         1 MOL     -0.614404
     23 C9         -0.0630   -5.3550    3.0980 c3        1 MOL      0.231574
     24 C10        -0.8970   -4.2880    3.9100 c3        1 MOL     -0.043272
     25 C11         1.2960   -5.3270    3.6440 c3        1 MOL     -0.095331
     26 C12        -0.9730   -4.4280    5.4640 c3        1 MOL     -0.332195
     27 H8         -2.1420   -5.7280    1.3680 hn        1 MOL      0.330613
     28 H9          0.4060   -4.1590    1.3000 h1        1 MOL      0.010491
     29 H10        -0.4840   -6.3290    3.3550 hc        1 MOL     -0.062139
     30 H11        -1.9320   -4.3760    3.5740 hc        1 MOL      0.076891
     31 H12        -0.5270   -3.3240    3.5800 hc        1 MOL      0.076891
     32 H13         2.0290   -5.9570    3.1510 hc        1 MOL      0.006712
     33 H14         1.6300   -4.2830    3.6040 hc        1 MOL      0.006712
     34 H15         1.2360   -5.7000    4.6720 hc        1 MOL      0.006712
     35 H16        -0.2350   -3.7950    5.9460 hc        1 MOL      0.079630
     36 H17        -2.0110   -4.2850    5.7410 hc        1 MOL      0.079630
     37 H18        -0.7840   -5.4950    5.6030 hc        1 MOL      0.079630
     38 N3          1.4360   -6.2560   -0.0370 n         1 MOL     -0.479155
     39 C13         2.0770   -4.9710   -0.5020 c3        1 MOL      0.067401
     40 C14         2.6770   -5.0800   -1.9140 c         1 MOL      0.471452
     41 O6          3.1550   -6.1360   -2.3230 o         1 MOL     -0.527861
     42 C15         3.1520   -4.5110    0.4510 c3        1 MOL     -0.068623
     43 C16         3.7220   -3.0970    0.2500 c         1 MOL      0.598088
     44 O7          4.9300   -3.0590   -0.0570 o         1 MOL     -0.611526
     45 O8          3.0170   -2.0660    0.4930 o         1 MOL     -0.611526
     46 H19         1.8990   -7.1510   -0.2120 hn        1 MOL      0.295931
     47 H20         1.3210   -4.1850   -0.5420 h1        1 MOL      0.034268
     48 H21         4.0010   -5.2090    0.4310 hc        1 MOL      0.015356
     49 H22         2.8390   -4.6020    1.4930 hc        1 MOL      0.015356
     50 N4          2.6470   -3.9590   -2.6440 n         1 MOL     -0.398700
     51 C17         3.0010   -3.9200   -4.1240 c3        1 MOL     -0.074949
     52 C18         4.2060   -2.9210   -4.4180 c         1 MOL      0.632575
     53 O9          4.6000   -2.9030   -5.6080 o         1 MOL     -0.597555
     54 H23         2.3820   -3.1000   -2.1710 hn        1 MOL      0.301237
     55 H24         2.1190   -3.5450   -4.6550 h1        1 MOL      0.087109
     56 H25         3.2450   -4.8820   -4.5760 h1        1 MOL      0.087109
     57 N5          4.7890   -2.2030   -3.4010 n         1 MOL     -0.647059
     58 C19         5.8750   -1.2100   -3.6760 c3        1 MOL      0.281502
     59 C20         7.1080   -1.1620   -2.6950 c         1 MOL      0.246753
     60 O10         8.1460   -0.7160   -3.1540 o         1 MOL     -0.544608
     61 C21         5.3290    0.1800   -3.9050 c3        1 MOL     -0.323984
     62 C22         4.3520    0.6790   -2.8110 c         1 MOL      0.736743
     63 O11         4.8060    0.8800   -1.6680 o         1 MOL     -0.693111
     64 O12         3.1600    0.6800   -3.0580 o         1 MOL     -0.693111
     65 H26         4.2920   -2.1610   -2.5230 hn        1 MOL      0.398976
     66 H27         6.3460   -1.3980   -4.6470 h1        1 MOL      0.065463
     67 H28         4.9090    0.2190   -4.9020 hc        1 MOL      0.057527
     68 H29         6.1460    0.9020   -3.8690 hc        1 MOL      0.057527
     69 N6          6.9750   -1.5420   -1.4300 n         1 MOL     -0.008645
     70 C23         8.1040   -1.4060   -0.4170 c3        1 MOL     -0.251259
     71 C24         8.2080   -0.0200    0.1540 c         1 MOL      0.524302
     72 O13         8.9710    0.1370    1.1190 o         1 MOL     -0.618422
     73 H30         6.1590   -2.0070   -1.0690 hn        1 MOL      0.084034
     74 H31         9.0900   -1.5950   -0.8280 h1        1 MOL      0.116425
     75 H32         7.8670   -2.0040    0.4610 h1        1 MOL      0.116425
     76 N7          7.4750    0.9560   -0.4390 n         1 MOL      0.006415
     77 C25         7.3330    2.3590   -0.0640 c3        1 MOL      0.060301
     78 C26         7.1300    2.6740    1.4840 c         1 MOL      0.459687
     79 O14         7.7120    3.6260    2.0250 o         1 MOL     -0.545198
     80 C27         8.3630    3.2240   -0.8540 c3        1 MOL     -0.047058
     81 C28         8.8620    2.6760   -2.2710 c3        1 MOL     -0.027875
     82 C29         9.8760    3.5900   -2.9860 c         1 MOL      0.635139
     83 N8         10.5230    3.0680   -3.9680 n         1 MOL     -0.733777
     84 O15        10.1690    4.7220   -2.6760 o         1 MOL     -0.579198
     85 H33         6.8630    0.6610   -1.1760 hn        1 MOL      0.119931
     86 H34         6.3860    2.6620   -0.5030 h1        1 MOL      0.075785
     87 H35         9.2510    3.4330   -0.2630 hc        1 MOL      0.005072
     88 H36         7.9500    4.1540   -1.2210 hc        1 MOL      0.005072
     89 H37         7.9840    2.4770   -2.8820 hc        1 MOL     -0.012706
     90 H38         9.3150    1.6890   -2.2960 hc        1 MOL     -0.012706
     91 H39        10.1160    2.2210   -4.3580 hn        1 MOL      0.325861
     92 H40        11.1890    3.5950   -4.5030 hn        1 MOL      0.325861
     93 N9          6.2990    1.8760    2.1190 n         1 MOL     -0.265624
     94 C30         5.9460    1.9670    3.5220 c3        1 MOL     -0.098410
     95 C31         4.4540    1.8880    3.7760 c         1 MOL      0.655813
     96 O16         3.9850    2.4140    4.8080 o         1 MOL     -0.615866
     97 C32         6.7270    0.9310    4.3320 c3        1 MOL      0.408443
     98 C33         6.5660   -0.5440    3.8990 c3        1 MOL     -0.398346
     99 C34         8.2080    1.1780    4.5970 c3        1 MOL     -0.398346
    100 H41         5.8290    1.1770    1.5660 hn        1 MOL      0.091056
    101 H42         6.1880    2.9740    3.8660 h1        1 MOL      0.085029
    102 H43         6.2440    1.0940    5.2960 hc        1 MOL     -0.067837
    103 H44         5.5040   -0.7960    3.9410 hc        1 MOL      0.086836
    104 H45         6.9760   -0.7290    2.9110 hc        1 MOL      0.086836
    105 H46         7.0820   -1.1520    4.6420 hc        1 MOL      0.086836
    106 H47         8.7630    1.2350    3.6550 hc        1 MOL      0.086836
    107 H48         8.3010    2.1120    5.1380 hc        1 MOL      0.086836
    108 H49         8.5490    0.4820    5.3670 hc        1 MOL      0.086836
    109 N10         3.7030    1.2530    2.9050 n         1 MOL     -0.653764
    110 C35         2.2190    1.2140    2.9170 c3        1 MOL      0.386523
    111 C36         1.5080    1.7230    1.6290 c         1 MOL      0.431715
    112 O17         2.2190    2.0220    0.6390 o         1 MOL     -0.522793
    113 C37         1.9620   -0.2510    3.2640 c3        1 MOL     -0.267476
    114 C38         0.5700   -0.6960    2.9260 c         1 MOL      0.504172
    115 N11         0.6250   -1.5270    1.9110 n         1 MOL     -0.465643
    116 O18        -0.4930   -0.3160    3.3930 o         1 MOL     -0.579769
    117 H50         4.2060    0.7760    2.1790 hn        1 MOL      0.406643
    118 H51         1.6940    1.8310    3.6480 h1        1 MOL      0.012378
    119 H52         2.1200   -0.3570    4.3310 hc        1 MOL      0.067448
    120 H53         2.7000   -0.8080    2.6920 hc        1 MOL      0.067448
    121 H54         1.5150   -1.5860    1.4410 hn        1 MOL      0.271320
    122 H55        -0.1950   -1.8000    1.3960 hn        1 MOL      0.271320
    123 N12         0.2210    1.8210    1.6300 n         1 MOL     -0.454198
    124 C39        -0.6520    2.2220    0.5410 c3        1 MOL      0.101755
    125 C40        -1.7750    3.2010    0.9140 c         1 MOL      0.531344
    126 O19        -2.6420    2.8560    1.7460 o         1 MOL     -0.545457
    127 C41        -1.1670    1.0180   -0.1800 c3        1 MOL     -0.062860
    128 C42        -2.0340    1.2380   -1.3770 ca        1 MOL      0.010602
    129 C43        -1.4300    1.6870   -2.5970 ca        1 MOL     -0.217041
    130 C44        -3.3890    0.9170   -1.3660 ca        1 MOL     -0.217041
    131 C45        -2.2430    1.8920   -3.7270 ca        1 MOL     -0.141364
    132 C46        -4.2240    1.1610   -2.5090 ca        1 MOL     -0.141364
    133 C47        -3.5800    1.4900   -3.7200 ca        1 MOL      0.207703
    134 O20        -4.2230    1.6510   -4.8670 oh        1 MOL     -0.518018
    135 H56        -0.3010    1.6080    2.4740 hn        1 MOL      0.267564
    136 H57        -0.0680    2.7510   -0.2070 h1        1 MOL      0.073194
    137 H58        -1.7670    0.3710    0.4530 hc        1 MOL      0.093548
    138 H59        -0.3570    0.3700   -0.5020 hc        1 MOL      0.093548
    139 H60        -0.3960    2.0000   -2.6600 ha        1 MOL      0.162343
    140 H61        -3.8420    0.4820   -0.4950 ha        1 MOL      0.162343
    141 H62        -1.8000    2.2570   -4.6470 ha        1 MOL      0.138718
    142 H63        -5.2430    0.8010   -2.5500 ha        1 MOL      0.138718
    143 H64        -5.0870    1.2830   -4.6600 ho        1 MOL      0.394883
    144 N13        -1.8110    4.3670    0.3620 n         1 MOL     -0.512910
    145 C48        -2.8480    5.3570    0.6210 c3        1 MOL      0.025257
    146 C49        -3.7010    5.5640   -0.6840 c         1 MOL      0.667136
    147 O21        -3.3200    6.1390   -1.6320 o         1 MOL     -0.546489
    148 C50        -2.0790    6.6710    0.9970 c3        1 MOL      0.053529
    149 C51        -3.0040    7.7380    1.6370 c3        1 MOL     -0.220722
    150 C52        -3.8410    8.4790    0.5070 c         1 MOL      0.694417
    151 O22        -3.3600    9.4440   -0.0730 o         1 MOL     -0.652896
    152 O23        -5.1240    8.2890    0.4830 o         1 MOL     -0.652896
    153 H65        -1.1050    4.6270   -0.3190 hn        1 MOL      0.304861
    154 H66        -3.5050    5.0380    1.4350 h1        1 MOL      0.101624
    155 H67        -1.6020    7.2040    0.1650 hc        1 MOL      0.004834
    156 H68        -1.2890    6.5280    1.7350 hc        1 MOL      0.004834
    157 H69        -2.3310    8.4900    2.0520 hc        1 MOL      0.034526
    158 H70        -3.5460    7.3710    2.5090 hc        1 MOL      0.034526
    159 N14        -4.9020    5.0080   -0.8640 n         1 MOL     -0.617640
    160 C53        -5.4050    3.7370   -0.2140 c3        1 MOL      0.040922
    161 C54        -5.8890    4.0030    1.2720 c         1 MOL      0.471577
    162 O24        -6.5420    5.0090    1.5910 o         1 MOL     -0.555238
    163 C55        -6.5140    3.0770   -1.1300 c3        1 MOL     -0.026057
    164 C56        -7.0500    1.7340   -0.5880 c3        1 MOL      0.012768
    165 C57        -8.1230    1.0340   -1.4580 c         1 MOL      0.712841
    166 O25        -8.9040    0.1740   -0.9600 o         1 MOL     -0.712461
    167 O26        -8.1040    1.2020   -2.6780 o         1 MOL     -0.712461
    168 H71        -5.4710    5.4700   -1.5540 hn        1 MOL      0.341211
    169 H72        -4.5120    3.1360   -0.0650 h1        1 MOL      0.128944
    170 H73        -6.0320    2.8240   -2.0660 hc        1 MOL      0.027317
    171 H74        -7.3140    3.8050   -1.3050 hc        1 MOL      0.027317
    172 H75        -7.4550    1.9380    0.4110 hc        1 MOL     -0.083025
    173 H76        -6.1780    1.1330   -0.3330 hc        1 MOL     -0.083025
    174 N15        -5.4500    3.1130    2.1460 n         1 MOL     -0.125496
    175 C58        -5.7100    3.2430    3.6170 c3        1 MOL     -0.181572
    176 H77        -4.7610    3.2720    4.1510 h1        1 MOL      0.076397
    177 H78        -6.2630    4.1630    3.8090 h1        1 MOL      0.076397
    178 H79        -6.2930    2.3890    3.9610 h1        1 MOL      0.076397
    179 H80        -4.7350    2.4860    1.8250 hn        1 MOL      0.172856
    180 Ca1        -8.5670   -2.4930   -0.9320 Ca        1 MOL      1.689936
    181 O27        -8.9030   -1.2060    1.3610 oh        1 MOL     -0.925204
    182 H81        -8.8540   -0.3930    0.8620 ho        1 MOL      0.430239
    183 H82        -8.1000   -1.2120    1.8800 ho        1 MOL      0.430239
    184 O28        -7.9890   -1.3690   -3.2560 oh        1 MOL     -0.925204
    185 H83        -7.9410   -0.4420   -3.0070 ho        1 MOL      0.430239
    186 H84        -8.3570   -1.3670   -4.1390 ho        1 MOL      0.430239
    187 O29       -10.6210   -1.6720   -2.3170 oh        1 MOL     -0.925204
    188 H85       -11.3700   -1.1830   -1.9740 ho        1 MOL      0.430239
    189 H86       -10.3840   -1.2040   -3.1170 ho        1 MOL      0.430239
    190 O30        -8.6830   -4.8610   -2.2690 oh        1 MOL     -0.925204
    191 H87        -8.3570   -4.7170   -3.1650 ho        1 MOL      0.430239
    192 H88        -8.8560   -5.8030   -2.2310 ho        1 MOL      0.430239
@<TRIPOS>BOND
     1    1    2 1   
     2    1    4 1   
     3    1    5 1   
     4    1    6 1   
     5    2    3 2   
     6    2    7 1   
     7    7    8 1   
     8    7   15 1   
     9    8    9 1   
    10    8   11 1   
    11    8   16 1   
    12    9   10 2   
    13    9   19 1   
    14   11   12 1   
    15   11   17 1   
    16   11   18 1   
    17   12   13 1   
    18   12   14 1   
    19   19   20 1   
    20   19   27 1   
    21   20   21 1   
    22   20   23 1   
    23   20   28 1   
    24   21   22 2   
    25   21   38 1   
    26   23   24 1   
    27   23   25 1   
    28   23   29 1   
    29   24   26 1   
    30   24   30 1   
    31   24   31 1   
    32   25   32 1   
    33   25   33 1   
    34   25   34 1   
    35   26   35 1   
    36   26   36 1   
    37   26   37 1   
    38   38   39 1   
    39   38   46 1   
    40   39   40 1   
    41   39   42 1   
    42   39   47 1   
    43   40   41 2   
    44   40   50 1   
    45   42   43 1   
    46   42   48 1   
    47   42   49 1   
    48   43   44 1   
    49   43   45 1   
    50   50   51 1   
    51   50   54 1   
    52   51   52 1   
    53   51   55 1   
    54   51   56 1   
    55   52   53 2   
    56   52   57 1   
    57   57   58 1   
    58   57   65 1   
    59   58   59 1   
    60   58   61 1   
    61   58   66 1   
    62   59   60 2   
    63   59   69 1   
    64   61   62 1   
    65   61   67 1   
    66   61   68 1   
    67   62   63 1   
    68   62   64 1   
    69   69   70 1   
    70   69   73 1   
    71   70   71 1   
    72   70   74 1   
    73   70   75 1   
    74   71   72 2   
    75   71   76 1   
    76   76   77 1   
    77   76   85 1   
    78   77   78 1   
    79   77   80 1   
    80   77   86 1   
    81   78   79 2   
    82   78   93 1   
    83   80   81 1   
    84   80   87 1   
    85   80   88 1   
    86   81   82 1   
    87   81   89 1   
    88   81   90 1   
    89   82   83 1   
    90   82   84 2   
    91   83   91 1   
    92   83   92 1   
    93   93   94 1   
    94   93  100 1   
    95   94   95 1   
    96   94   97 1   
    97   94  101 1   
    98   95   96 2   
    99   95  109 1   
   100   97   98 1   
   101   97   99 1   
   102   97  102 1   
   103   98  103 1   
   104   98  104 1   
   105   98  105 1   
   106   99  106 1   
   107   99  107 1   
   108   99  108 1   
   109  109  110 1   
   110  109  117 1   
   111  110  111 1   
   112  110  113 1   
   113  110  118 1   
   114  111  112 2   
   115  111  123 1   
   116  113  114 1   
   117  113  119 1   
   118  113  120 1   
   119  114  115 1   
   120  114  116 2   
   121  115  121 1   
   122  115  122 1   
   123  123  124 1   
   124  123  135 1   
   125  124  125 1   
   126  124  127 1   
   127  124  136 1   
   128  125  126 2   
   129  125  144 1   
   130  127  128 1   
   131  127  137 1   
   132  127  138 1   
   133  128  129 ar  
   134  128  130 ar  
   135  129  131 ar  
   136  129  139 1   
   137  130  132 ar  
   138  130  140 1   
   139  131  133 ar  
   140  131  141 1   
   141  132  133 ar  
   142  132  142 1   
   143  133  134 1   
   144  134  143 1   
   145  144  145 1   
   146  144  153 1   
   147  145  146 1   
   148  145  148 1   
   149  145  154 1   
   150  146  147 2   
   151  146  159 1   
   152  148  149 1   
   153  148  155 1   
   154  148  156 1   
   155  149  150 1   
   156  149  157 1   
   157  149  158 1   
   158  150  151 1   
   159  150  152 1   
   160  159  160 1   
   161  159  168 1   
   162  160  161 1   
   163  160  163 1   
   164  160  169 1   
   165  161  162 2   
   166  161  174 1   
   167  163  164 1   
   168  163  170 1   
   169  163  171 1   
   170  164  165 1   
   171  164  172 1   
   172  164  173 1   
   173  165  166 1   
   174  165  167 1   
   175  174  175 1   
   176  174  179 1   
   177  175  176 1   
   178  175  177 1   
   179  175  178 1   
   180  181  182 1   
   181  181  183 1   
   182  184  185 1   
   183  184  186 1   
   184  187  188 1   
   185  187  189 1   
   186  190  191 1   
   187  190  192 1   
@<TRIPOS>SUBSTRUCTURE
     1 MOL         1 TEMP              0 ****  ****    0 ROOT
