@<TRIPOS>MOLECULE
MOL
  178   175     1     0     0
SMALL
resp


@<TRIPOS>ATOM
      1 C1          2.7710   -1.3910    5.1370 c3        1 MOL     -0.325032
      2 C2          3.8990   -0.8100    4.2560 c         1 MOL      0.634637
      3 O1          3.7680    0.2210    3.5510 o         1 MOL     -0.582552
      4 H1          3.1820   -2.1600    5.7910 hc        1 MOL      0.085371
      5 H2          2.3350   -0.5950    5.7410 hc        1 MOL      0.085371
      6 H3          2.0010   -1.8280    4.5010 hc        1 MOL      0.085371
      7 N1          5.0420   -1.4640    4.3120 n         1 MOL     -0.596259
      8 C3          6.2990   -1.0820    3.6700 c3        1 MOL      0.469000
      9 C4          6.4310   -1.6500    2.2280 c         1 MOL      0.390788
     10 O2          7.3650   -1.3210    1.4680 o         1 MOL     -0.482737
     11 C5          7.4640   -1.4360    4.5710 c3        1 MOL     -0.402845
     12 C6          8.7430   -0.7320    4.1310 c         1 MOL      0.785535
     13 O3          9.8260   -1.2700    4.5410 o         1 MOL     -0.736838
     14 O4          8.7540    0.3430    3.4970 o         1 MOL     -0.736838
     15 H4          5.0910   -2.2230    4.9700 hn        1 MOL      0.281921
     16 H5          6.2440   -0.0020    3.5030 h1        1 MOL      0.011097
     17 H6          7.5960   -2.5220    4.5450 hc        1 MOL      0.051815
     18 H7          7.4140   -1.0880    5.6020 hc        1 MOL      0.051815
     19 N2          5.4410   -2.4330    1.7650 n         1 MOL     -0.534174
     20 C7          5.2510   -2.9920    0.4190 c3        1 MOL      0.368764
     21 C8          5.0170   -1.9390   -0.6520 c         1 MOL      0.598842
     22 O5          3.9370   -1.8670   -1.2840 o         1 MOL     -0.722610
     23 C9          6.3850   -3.9970   -0.0010 c3        1 MOL     -0.307851
     24 H8          4.6420   -2.6030    2.3630 hn        1 MOL      0.279635
     25 H9          4.3610   -3.6230    0.4670 h1        1 MOL     -0.034189
     26 H10         7.3220   -3.4540   -0.1290 hc        1 MOL      0.081783
     27 H11         6.5730   -4.7930    0.7190 hc        1 MOL      0.081783
     28 H12         6.2060   -4.4590   -0.9630 hc        1 MOL      0.081783
     29 N3          5.9430   -1.0520   -0.9000 n         1 MOL     -0.447556
     30 C10         5.8000   -0.0500   -2.0070 c3        1 MOL      0.087863
     31 C11         5.5590    1.3730   -1.5370 c         1 MOL      0.648886
     32 O6          5.9030    2.3010   -2.2340 o         1 MOL     -0.558086
     33 C12         7.0210   -0.1980   -2.9030 c3        1 MOL     -0.327768
     34 C13         7.1120   -1.5880   -3.4960 c         1 MOL      0.741861
     35 O7          6.0800   -2.2120   -3.8660 o         1 MOL     -0.701051
     36 O8          8.1600   -2.1800   -3.7360 o         1 MOL     -0.701051
     37 H13         6.8030   -1.0480   -0.3570 hn        1 MOL      0.311679
     38 H14         4.8750   -0.2260   -2.5670 h1        1 MOL      0.041025
     39 H15         7.9610   -0.0910   -2.3590 hc        1 MOL      0.071117
     40 H16         6.8950    0.5180   -3.7180 hc        1 MOL      0.071117
     41 N4          5.0750    1.4950   -0.2860 n         1 MOL     -0.370812
     42 C14         4.8970    2.8050    0.3960 c3        1 MOL     -0.151972
     43 C15         3.8480    3.6570   -0.2910 c         1 MOL      0.538311
     44 O9          4.0210    4.8590   -0.3670 o         1 MOL     -0.529173
     45 H17         4.7520    0.6770    0.2090 hn        1 MOL      0.253447
     46 H18         5.8430    3.3430    0.4210 h1        1 MOL      0.116897
     47 H19         4.6860    2.5100    1.4220 h1        1 MOL      0.116897
     48 N5          2.9310    3.0150   -1.0420 n         1 MOL     -0.333076
     49 C16         1.9830    3.6340   -1.9850 c3        1 MOL     -0.179555
     50 C17         1.0620    4.8000   -1.4220 c         1 MOL      0.551402
     51 O10         0.7080    4.7300   -0.2510 o         1 MOL     -0.479631
     52 C18         1.2430    2.4670   -2.6620 c3        1 MOL     -0.087794
     53 C19         2.1240    1.4710   -3.4420 c         1 MOL      0.586751
     54 N6          2.8910    1.9970   -4.3700 n         1 MOL     -0.585369
     55 O11         2.2320    0.2920   -3.1640 o         1 MOL     -0.651181
     56 H20         2.8360    2.0240   -0.9110 hn        1 MOL      0.288137
     57 H21         2.6530    4.0320   -2.7470 h1        1 MOL      0.074339
     58 H22         0.5270    2.8810   -3.3770 hc        1 MOL      0.073484
     59 H23         0.7500    1.8450   -1.9190 hc        1 MOL      0.073484
     60 H24         2.7430    2.9400   -4.6750 hn        1 MOL      0.290797
     61 H25         3.3780    1.3070   -4.9270 hn        1 MOL      0.290797
     62 N7          0.7660    5.7430   -2.2420 n         1 MOL     -0.324686
     63 C20         0.1190    7.0020   -1.8550 c3        1 MOL     -0.308859
     64 C21        -1.3880    6.8450   -1.5770 c         1 MOL      0.567705
     65 O12        -2.1120    6.0160   -2.2340 o         1 MOL     -0.508735
     66 H26         1.0020    5.5750   -3.2100 hn        1 MOL      0.296069
     67 H27         0.3430    7.6950   -2.6770 h1        1 MOL      0.148891
     68 H28         0.5850    7.3800   -0.9420 h1        1 MOL      0.148891
     69 N8         -1.9520    7.5230   -0.6220 n         1 MOL     -0.383299
     70 C22        -3.3400    7.4980   -0.2310 c3        1 MOL     -0.263867
     71 C23        -3.9360    6.2270    0.4910 c         1 MOL      0.536781
     72 O13        -5.0630    6.2240    0.9240 o         1 MOL     -0.560802
     73 C24        -3.7730    8.7740    0.5450 c3        1 MOL      0.448613
     74 C25        -3.2430    8.7720    1.9890 c3        1 MOL     -0.279269
     75 O14        -3.2600    9.8750   -0.1810 oh        1 MOL     -0.604260
     76 H29        -1.2980    8.0660   -0.0770 hn        1 MOL      0.259433
     77 H30        -3.9640    7.5480   -1.1140 h1        1 MOL      0.154042
     78 H31        -4.8560    8.8240    0.6440 h1        1 MOL      0.034614
     79 H32        -2.3250    9.7120   -0.0490 ho        1 MOL      0.351471
     80 H33        -3.6740    7.9380    2.5500 hc        1 MOL      0.064057
     81 H34        -2.1540    8.6200    2.0190 hc        1 MOL      0.064057
     82 H35        -3.3390    9.7440    2.4610 hc        1 MOL      0.064057
     83 N9         -3.0780    5.2300    0.6750 n         1 MOL     -0.246744
     84 C26        -3.4550    3.8560    1.0810 c3        1 MOL      0.064005
     85 C27        -2.9170    2.7660    0.1150 c         1 MOL      0.479613
     86 O15        -2.2760    3.1490   -0.8660 o         1 MOL     -0.450137
     87 C28        -3.0060    3.5450    2.5560 c3        1 MOL      0.013255
     88 C29        -1.4940    3.7950    2.8500 c3        1 MOL     -0.008179
     89 C30        -3.9090    4.5010    3.4100 c3        1 MOL     -0.231968
     90 C31        -1.0440    3.3730    4.2620 c3        1 MOL     -0.261455
     91 H36        -2.2310    5.3460    0.1360 hn        1 MOL      0.151506
     92 H37        -4.5360    3.7440    0.9850 h1        1 MOL      0.067805
     93 H38        -3.2700    2.5380    2.8690 hc        1 MOL      0.021005
     94 H39        -1.2440    4.8550    2.8770 hc        1 MOL      0.058847
     95 H40        -0.9330    3.3100    2.0560 hc        1 MOL      0.058847
     96 H41        -4.9290    4.2890    3.0850 hc        1 MOL      0.055888
     97 H42        -3.8720    4.4640    4.5020 hc        1 MOL      0.055888
     98 H43        -3.6200    5.5120    3.1240 hc        1 MOL      0.055888
     99 H44        -1.6590    3.9140    4.9750 hc        1 MOL      0.073723
    100 H45        -1.2220    2.3000    4.3940 hc        1 MOL      0.073723
    101 H46         0.0030    3.5680    4.5030 hc        1 MOL      0.073723
    102 N10        -3.0810    1.5000    0.3590 n         1 MOL     -0.557467
    103 C32        -2.4240    0.3640   -0.3320 c3        1 MOL      0.142428
    104 C33        -3.3010   -0.9040   -0.4460 c         1 MOL      0.394199
    105 O16        -2.7920   -2.0410   -0.6780 o         1 MOL     -0.400864
    106 C34        -1.0060    0.1020    0.2320 c3        1 MOL     -0.256960
    107 C35        -0.0890   -0.7210   -0.6800 c         1 MOL      0.560285
    108 O17         1.0360   -1.0590   -0.2500 o         1 MOL     -0.667134
    109 O18        -0.3030   -0.7790   -1.9030 o         1 MOL     -0.667134
    110 H47        -3.9080    1.2750    0.8850 hn        1 MOL      0.277976
    111 H48        -2.1670    0.7990   -1.3030 h1        1 MOL      0.071198
    112 H49        -1.0100   -0.3930    1.2030 hc        1 MOL      0.118314
    113 H50        -0.5750    1.0950    0.3600 hc        1 MOL      0.118314
    114 N11        -4.6420   -0.7190   -0.3230 n         1 MOL     -0.369995
    115 C36        -5.7010   -1.6300   -0.6910 c3        1 MOL      0.252890
    116 C37        -5.6220   -2.9410    0.1600 c         1 MOL      0.114020
    117 O19        -5.8020   -2.9520    1.4240 o         1 MOL     -0.438902
    118 C38        -7.0720   -0.9340   -0.4150 c3        1 MOL     -0.358427
    119 C39        -8.3290   -1.7610   -0.6920 ca        1 MOL      0.261681
    120 C40        -8.5310   -2.2870   -1.9740 ca        1 MOL     -0.247717
    121 C41        -9.3780   -1.7500    0.2150 ca        1 MOL     -0.247717
    122 C42        -9.6950   -3.0140   -2.2940 ca        1 MOL     -0.050140
    123 C43       -10.5470   -2.4800   -0.0260 ca        1 MOL     -0.050140
    124 C44       -10.7000   -3.1460   -1.3000 ca        1 MOL     -0.199851
    125 H51        -4.9690    0.1790    0.0160 hn        1 MOL      0.241170
    126 H52        -5.6760   -1.8240   -1.7610 h1        1 MOL      0.025374
    127 H53        -7.1220   -0.0040   -0.9700 hc        1 MOL      0.114181
    128 H54        -7.0350   -0.7400    0.6560 hc        1 MOL      0.114181
    129 H55        -7.6740   -2.1560   -2.6180 ha        1 MOL      0.136879
    130 H56        -9.2560   -1.2030    1.1400 ha        1 MOL      0.136879
    131 H57        -9.8670   -3.2940   -3.3220 ha        1 MOL      0.102219
    132 H58       -11.3970   -2.4620    0.6320 ha        1 MOL      0.102219
    133 H59       -11.5510   -3.7350   -1.6130 ha        1 MOL      0.121281
    134 N12        -5.3560   -4.1260   -0.4120 n         1 MOL      0.021904
    135 C45        -5.1690   -5.3900    0.3380 c3        1 MOL      0.152046
    136 C46        -4.1170   -5.2670    1.4280 c         1 MOL      0.218270
    137 O20        -4.1540   -6.0390    2.3760 o         1 MOL     -0.529740
    138 C47        -4.8660   -6.4370   -0.7100 c3        1 MOL      0.001790
    139 C48        -5.5390   -5.9350   -1.9490 c3        1 MOL     -0.126509
    140 C49        -5.4060   -4.4260   -1.8310 c3        1 MOL      0.031188
    141 H60        -6.1500   -5.5940    0.7690 h1        1 MOL      0.032958
    142 H61        -3.7910   -6.4670   -0.8930 hc        1 MOL      0.032979
    143 H62        -5.1380   -7.4120   -0.3110 hc        1 MOL      0.032979
    144 H63        -5.0370   -6.3280   -2.8400 hc        1 MOL      0.034299
    145 H64        -6.6010   -6.1960   -1.9310 hc        1 MOL      0.034299
    146 H65        -4.4920   -4.0790   -2.3110 h1        1 MOL      0.032440
    147 H66        -6.2350   -3.9300   -2.3350 h1        1 MOL      0.032440
    148 N13        -3.1150   -4.3930    1.3060 n         1 MOL      0.100060
    149 C50        -2.0640   -4.0420    2.3110 c3        1 MOL     -0.228200
    150 C51        -2.5460   -3.0270    3.3660 c         1 MOL      0.504198
    151 O21        -1.8600   -2.7540    4.3460 o         1 MOL     -0.580604
    152 C52        -0.7860   -3.6960    1.5940 c3        1 MOL      0.114481
    153 C53        -0.2540   -4.8540    0.8210 c3        1 MOL     -0.102729
    154 C54         0.5020   -4.3270   -0.3780 c         1 MOL      0.566674
    155 O22         1.7270   -4.0330   -0.2790 o         1 MOL     -0.689179
    156 O23        -0.1290   -3.9940   -1.3990 o         1 MOL     -0.689179
    157 H67        -3.1450   -3.8190    0.4710 hn        1 MOL      0.043372
    158 H68        -1.8460   -4.9330    2.9130 h1        1 MOL      0.106795
    159 H69        -0.0730   -3.3830    2.3580 hc        1 MOL      0.035698
    160 H70        -0.9860   -2.8370    0.9590 hc        1 MOL      0.035698
    161 H71        -1.0620   -5.4560    0.3990 hc        1 MOL      0.003510
    162 H72         0.3340   -5.4910    1.4730 hc        1 MOL      0.003510
    163 N14        -3.6550   -2.3820    3.1560 n         1 MOL     -0.108776
    164 C55        -4.3860   -1.5080    4.1080 c3        1 MOL     -0.329564
    165 H73        -5.0490   -0.8440    3.5540 h1        1 MOL      0.119627
    166 H74        -4.9740   -2.1240    4.7880 h1        1 MOL      0.119627
    167 H75        -3.6720   -0.9150    4.6790 h1        1 MOL      0.119627
    168 H76        -4.2080   -2.6950    2.3700 hn        1 MOL      0.142364
    169 Ca1         1.7260   -2.3270   -2.3650 Ca        1 MOL      1.867305
    170 O24         0.3180   -2.4370   -4.6210 oh        1 MOL     -0.884925
    171 H77         0.3940   -1.8420   -5.3710 ho        1 MOL      0.418024
    172 H78         0.0460   -3.2690   -5.0020 ho        1 MOL      0.418024
    173 O25         2.4130   -4.8290   -3.4200 oh        1 MOL     -0.884925
    174 H79         3.2780   -5.2510   -3.3880 ho        1 MOL      0.418024
    175 H80         1.8180   -5.5270   -3.6900 ho        1 MOL      0.418024
    176 O26         3.5600   -2.0760   -4.1030 oh        1 MOL     -0.884925
    177 H81         4.5040   -2.0530   -3.9730 ho        1 MOL      0.418024
    178 H82         3.3950   -1.4120   -4.7820 ho        1 MOL      0.418024
@<TRIPOS>BOND
     1    1    2 1   
     2    1    4 1   
     3    1    5 1   
     4    1    6 1   
     5    2    3 2   
     6    2    7 1   
     7    7    8 1   
     8    7   15 1   
     9    8    9 1   
    10    8   11 1   
    11    8   16 1   
    12    9   10 2   
    13    9   19 1   
    14   11   12 1   
    15   11   17 1   
    16   11   18 1   
    17   12   13 1   
    18   12   14 1   
    19   19   20 1   
    20   19   24 1   
    21   20   21 1   
    22   20   23 1   
    23   20   25 1   
    24   21   22 2   
    25   21   29 1   
    26   23   26 1   
    27   23   27 1   
    28   23   28 1   
    29   29   30 1   
    30   29   37 1   
    31   30   31 1   
    32   30   33 1   
    33   30   38 1   
    34   31   32 2   
    35   31   41 1   
    36   33   34 1   
    37   33   39 1   
    38   33   40 1   
    39   34   35 1   
    40   34   36 1   
    41   41   42 1   
    42   41   45 1   
    43   42   43 1   
    44   42   46 1   
    45   42   47 1   
    46   43   44 2   
    47   43   48 1   
    48   48   49 1   
    49   48   56 1   
    50   49   50 1   
    51   49   52 1   
    52   49   57 1   
    53   50   51 2   
    54   50   62 1   
    55   52   53 1   
    56   52   58 1   
    57   52   59 1   
    58   53   54 1   
    59   53   55 2   
    60   54   60 1   
    61   54   61 1   
    62   62   63 1   
    63   62   66 1   
    64   63   64 1   
    65   63   67 1   
    66   63   68 1   
    67   64   65 2   
    68   64   69 1   
    69   69   70 1   
    70   69   76 1   
    71   70   71 1   
    72   70   73 1   
    73   70   77 1   
    74   71   72 2   
    75   71   83 1   
    76   73   74 1   
    77   73   75 1   
    78   73   78 1   
    79   74   80 1   
    80   74   81 1   
    81   74   82 1   
    82   75   79 1   
    83   83   84 1   
    84   83   91 1   
    85   84   85 1   
    86   84   87 1   
    87   84   92 1   
    88   85   86 2   
    89   85  102 1   
    90   87   88 1   
    91   87   89 1   
    92   87   93 1   
    93   88   90 1   
    94   88   94 1   
    95   88   95 1   
    96   89   96 1   
    97   89   97 1   
    98   89   98 1   
    99   90   99 1   
   100   90  100 1   
   101   90  101 1   
   102  102  103 1   
   103  102  110 1   
   104  103  104 1   
   105  103  106 1   
   106  103  111 1   
   107  104  105 2   
   108  104  114 1   
   109  106  107 1   
   110  106  112 1   
   111  106  113 1   
   112  107  108 1   
   113  107  109 1   
   114  114  115 1   
   115  114  125 1   
   116  115  116 1   
   117  115  118 1   
   118  115  126 1   
   119  116  117 2   
   120  116  134 1   
   121  118  119 1   
   122  118  127 1   
   123  118  128 1   
   124  119  120 ar  
   125  119  121 ar  
   126  120  122 ar  
   127  120  129 1   
   128  121  123 ar  
   129  121  130 1   
   130  122  124 ar  
   131  122  131 1   
   132  123  124 ar  
   133  123  132 1   
   134  124  133 1   
   135  134  135 1   
   136  134  140 1   
   137  135  136 1   
   138  135  138 1   
   139  135  141 1   
   140  136  137 2   
   141  136  148 1   
   142  138  139 1   
   143  138  142 1   
   144  138  143 1   
   145  139  140 1   
   146  139  144 1   
   147  139  145 1   
   148  140  146 1   
   149  140  147 1   
   150  148  149 1   
   151  148  157 1   
   152  149  150 1   
   153  149  152 1   
   154  149  158 1   
   155  150  151 2   
   156  150  163 1   
   157  152  153 1   
   158  152  159 1   
   159  152  160 1   
   160  153  154 1   
   161  153  161 1   
   162  153  162 1   
   163  154  155 1   
   164  154  156 1   
   165  163  164 1   
   166  163  168 1   
   167  164  165 1   
   168  164  166 1   
   169  164  167 1   
   170  170  171 1   
   171  170  172 1   
   172  173  174 1   
   173  173  175 1   
   174  176  177 1   
   175  176  178 1   
@<TRIPOS>SUBSTRUCTURE
     1 MOL         1 TEMP              0 ****  ****    0 ROOT
