@<TRIPOS>MOLECULE
MOL
  192   187     1     0     0
SMALL
resp


@<TRIPOS>ATOM
      1 C1         -1.4480   -7.9580   -2.2930 c3        1 MOL     -0.346738
      2 C2         -1.5680   -6.4700   -2.1570 c         1 MOL      0.720038
      3 O1         -1.3940   -5.7270   -3.1120 o         1 MOL     -0.614338
      4 H1         -0.4240   -8.2160   -2.5600 hc        1 MOL      0.091763
      5 H2         -1.7070   -8.4320   -1.3470 hc        1 MOL      0.091763
      6 H3         -2.1260   -8.3080   -3.0720 hc        1 MOL      0.091763
      7 N1         -2.0120   -5.9860   -1.0080 n         1 MOL     -0.549749
      8 C3         -2.2310   -4.5690   -0.7380 c3        1 MOL      0.119090
      9 C4         -0.9660   -3.8340   -0.3810 c         1 MOL      0.220513
     10 O2         -1.0270   -2.5910   -0.5250 o         1 MOL     -0.449136
     11 C5         -3.2540   -4.3770    0.3630 c3        1 MOL     -0.212325
     12 C6         -2.9890   -5.1430    1.6360 c         1 MOL      0.711599
     13 O3         -3.2230   -6.3710    1.6800 o         1 MOL     -0.713123
     14 O4         -2.5220   -4.5290    2.5860 o         1 MOL     -0.713123
     15 H4         -2.1820   -6.6680   -0.2840 hn        1 MOL      0.315263
     16 H5         -2.6720   -4.1120   -1.6240 h1        1 MOL      0.146790
     17 H6         -4.1900   -4.7690   -0.0340 hc        1 MOL      0.056017
     18 H7         -3.3610   -3.3090    0.5900 hc        1 MOL      0.056017
     19 N2          0.1030   -4.5040    0.0330 n         1 MOL     -0.133259
     20 C7          1.3300   -3.8390    0.4760 c3        1 MOL     -0.018703
     21 C8          2.2850   -3.4910   -0.6910 c         1 MOL      0.531414
     22 O5          2.4800   -4.3110   -1.5660 o         1 MOL     -0.559433
     23 C9          2.0510   -4.8040    1.4790 c3        1 MOL     -0.089445
     24 C10         1.2790   -5.0760    2.7790 c3        1 MOL     -0.255211
     25 C11         1.2500   -3.8430    3.6760 c3        1 MOL     -0.075830
     26 C12         0.4560   -4.2220    4.9050 c3        1 MOL      0.156438
     27 N3         -0.9430   -3.8600    4.8310 n4        1 MOL     -0.389455
     28 H8          0.1530   -5.5020   -0.1490 hn        1 MOL      0.205107
     29 H9          1.0970   -2.8960    0.9770 h1        1 MOL      0.160385
     30 H10         3.0150   -4.3510    1.7250 hc        1 MOL      0.074392
     31 H11         2.4560   -5.7080    1.0190 hc        1 MOL      0.074392
     32 H12         1.7680   -5.7240    3.4930 hc        1 MOL      0.094185
     33 H13         0.2600   -5.3540    2.4830 hc        1 MOL      0.094185
     34 H14         0.8250   -2.9960    3.1370 hc        1 MOL      0.078553
     35 H15         2.2790   -3.5690    3.8940 hc        1 MOL      0.078553
     36 H16         0.8450   -3.6710    5.7530 hx        1 MOL      0.035039
     37 H17         0.5670   -5.2840    5.1370 hx        1 MOL      0.035039
     38 H18        -1.3490   -4.2740    4.0000 hn        1 MOL      0.311689
     39 H19        -1.4470   -4.1180    5.6740 hn        1 MOL      0.311689
     40 H20        -0.9360   -2.8510    4.7680 hn        1 MOL      0.311689
     41 N4          2.7400   -2.2800   -0.8490 n         1 MOL     -0.579377
     42 C13         2.8790   -1.1530    0.0130 c3        1 MOL     -0.121600
     43 C14         3.1580   -1.4940    1.4630 c         1 MOL      0.423047
     44 O6          2.3780   -1.1700    2.3970 o         1 MOL     -0.610916
     45 C15         1.6640   -0.1750   -0.1770 c3        1 MOL     -0.282862
     46 C16         1.1950    0.1410   -1.6190 c         1 MOL      0.778894
     47 O7          0.0670    0.7260   -1.7240 o         1 MOL     -0.737743
     48 O8          1.9390   -0.0960   -2.6370 o         1 MOL     -0.737743
     49 H21         3.1420   -2.1550   -1.7650 hn        1 MOL      0.337551
     50 H22         3.7310   -0.5920   -0.3780 h1        1 MOL      0.192357
     51 H23         1.9570    0.7640    0.2950 hc        1 MOL      0.112238
     52 H24         0.8020   -0.5220    0.3900 hc        1 MOL      0.112238
     53 N5          4.2390   -2.1480    1.8130 n         1 MOL     -0.125129
     54 C17         5.3930   -2.3250    0.9160 c3        1 MOL     -0.178578
     55 C18         6.7360   -2.6600    1.6310 c         1 MOL      0.564671
     56 O9          6.8400   -3.0410    2.7690 o         1 MOL     -0.546219
     57 H25         4.3510   -2.4650    2.7650 hn        1 MOL      0.222949
     58 H26         5.5730   -1.4410    0.2950 h1        1 MOL      0.095193
     59 H27         5.2190   -3.1320    0.1990 h1        1 MOL      0.095193
     60 N6          7.8800   -2.6020    0.9480 n         1 MOL     -0.484829
     61 C19         8.1300   -2.0910   -0.4620 c3        1 MOL      0.074471
     62 C20         7.8780   -0.5410   -0.5080 c         1 MOL      0.520227
     63 O10         8.2540    0.2140    0.4330 o         1 MOL     -0.476874
     64 C21         9.5450   -2.3710   -0.9650 c3        1 MOL     -0.190107
     65 C22        10.6470   -2.4600    0.0710 c         1 MOL      0.681265
     66 O11        10.5080   -2.2650    1.3260 o         1 MOL     -0.647253
     67 O12        11.7860   -2.6970   -0.4110 o         1 MOL     -0.647253
     68 H28         8.6800   -2.6380    1.5610 hn        1 MOL      0.324459
     69 H29         7.4320   -2.5800   -1.1470 h1        1 MOL      0.011985
     70 H30         9.7870   -1.6600   -1.7540 hc        1 MOL      0.047154
     71 H31         9.5580   -3.3190   -1.5090 hc        1 MOL      0.047154
     72 N7          7.1220   -0.1230   -1.4890 n         1 MOL     -0.335428
     73 C23         6.7260    1.2450   -1.8140 c3        1 MOL     -0.254632
     74 C24         5.8150    2.0360   -0.8340 c         1 MOL      0.636329
     75 O13         5.2220    1.6060    0.1240 o         1 MOL     -0.487239
     76 H32         6.9010   -0.7720   -2.2410 hn        1 MOL      0.256411
     77 H33         6.1430    1.1230   -2.7230 h1        1 MOL      0.120420
     78 H34         7.5660    1.9210   -2.0170 h1        1 MOL      0.120420
     79 N8          5.7610    3.3820   -1.0640 n         1 MOL     -0.538457
     80 C25         5.0430    4.4580   -0.3300 c3        1 MOL      0.005536
     81 C26         3.6130    4.0590   -0.0710 c         1 MOL      0.510026
     82 O14         2.9560    3.6640   -1.0530 o         1 MOL     -0.527944
     83 C27         5.1530    5.7450   -1.1290 c3        1 MOL      0.282306
     84 C28         6.6540    6.2220   -1.1270 c3        1 MOL     -0.425086
     85 O15         4.5280    6.8920   -0.5150 oh        1 MOL     -0.596098
     86 H35         6.2610    3.6050   -1.9200 hn        1 MOL      0.252869
     87 H36         5.5440    4.4810    0.6390 h1        1 MOL      0.122177
     88 H37         4.7400    5.6690   -2.1370 h1        1 MOL      0.037111
     89 H38         4.2990    7.4710   -1.2440 ho        1 MOL      0.408822
     90 H39         6.9610    6.4260   -0.0970 hc        1 MOL      0.117319
     91 H40         7.3670    5.4560   -1.4390 hc        1 MOL      0.117319
     92 H41         6.8530    7.1820   -1.5980 hc        1 MOL      0.117319
     93 N9          3.0980    4.2140    1.1390 n         1 MOL     -0.317969
     94 C29         1.7380    3.8270    1.5330 c3        1 MOL     -0.280081
     95 C30         0.8110    5.0490    1.2680 c         1 MOL      0.593278
     96 O16         1.1750    6.2000    1.4300 o         1 MOL     -0.500968
     97 C31         1.6720    3.3310    3.0210 c3        1 MOL      0.203089
     98 C32         2.6990    2.2580    3.3260 c3        1 MOL      0.024371
     99 C33         0.2230    2.6920    3.2610 c3        1 MOL     -0.351745
    100 C34         3.0060    2.1700    4.7790 c3        1 MOL     -0.182749
    101 H42         3.7290    4.4940    1.8850 hn        1 MOL      0.272113
    102 H43         1.4630    2.9180    1.0060 h1        1 MOL      0.095763
    103 H44         1.8000    4.1970    3.6680 hc        1 MOL      0.014856
    104 H45         3.6210    2.5580    2.8230 hc        1 MOL      0.055754
    105 H46         2.4260    1.2440    3.0210 hc        1 MOL      0.055754
    106 H47         0.0530    1.9060    2.5330 hc        1 MOL      0.074686
    107 H48        -0.0200    2.4550    4.2890 hc        1 MOL      0.074686
    108 H49        -0.5830    3.3910    2.9960 hc        1 MOL      0.074686
    109 H50         3.3020    3.1640    5.1270 hc        1 MOL      0.038704
    110 H51         2.0810    1.9540    5.3190 hc        1 MOL      0.038704
    111 H52         3.7790    1.4530    5.0620 hc        1 MOL      0.038704
    112 N10        -0.3940    4.7380    0.6810 n         1 MOL     -0.336142
    113 C35        -1.5780    5.6140    0.6240 c3        1 MOL     -0.051985
    114 C36        -2.8420    5.0230    1.3000 c         1 MOL      0.347361
    115 O17        -3.8030    5.7460    1.5580 o         1 MOL     -0.463756
    116 C37        -1.8170    6.1200   -0.8160 c3        1 MOL      0.240005
    117 C38        -2.4160    5.1490   -1.8490 c3        1 MOL     -0.437960
    118 O18        -0.5560    6.5170   -1.3030 oh        1 MOL     -0.553456
    119 H53        -0.4730    3.7430    0.5070 hn        1 MOL      0.244726
    120 H54        -1.2040    6.4040    1.2760 h1        1 MOL      0.138974
    121 H55        -2.4930    6.9680   -0.6580 h1        1 MOL      0.084798
    122 H56        -0.1590    5.7000   -1.6170 ho        1 MOL      0.347096
    123 H57        -1.9360    4.1780   -1.8440 hc        1 MOL      0.139104
    124 H58        -3.4740    5.1150   -1.5940 hc        1 MOL      0.139104
    125 H59        -2.4640    5.5180   -2.8700 hc        1 MOL      0.139104
    126 N11        -2.8840    3.6600    1.5390 n         1 MOL     -0.405111
    127 C39        -4.1150    2.8900    1.8290 c3        1 MOL      0.124970
    128 C40        -5.2910    3.0150    0.8560 c         1 MOL      0.338205
    129 O19        -5.3000    3.8870   -0.0530 o         1 MOL     -0.444194
    130 C41        -4.5300    3.0770    3.3010 c3        1 MOL      0.376752
    131 C42        -3.6070    2.4220    4.2670 c3        1 MOL     -0.166871
    132 O20        -5.8040    2.5670    3.6390 oh        1 MOL     -0.677369
    133 H60        -2.0670    3.1800    1.2120 hn        1 MOL      0.277543
    134 H61        -3.7760    1.8640    1.7130 h1        1 MOL      0.053301
    135 H62        -4.5890    4.1460    3.5100 h1        1 MOL      0.030799
    136 H63        -6.3130    3.3280    3.9430 ho        1 MOL      0.409048
    137 H64        -2.5770    2.6130    3.9540 hc        1 MOL      0.030747
    138 H65        -3.7600    2.7950    5.2700 hc        1 MOL      0.030747
    139 H66        -3.7980    1.3430    4.2090 hc        1 MOL      0.030747
    140 N12        -6.2380    2.0630    0.8540 n         1 MOL     -0.203799
    141 C43        -7.3240    1.8940   -0.0480 c3        1 MOL     -0.116383
    142 C44        -7.1850    0.8570   -1.1760 c         1 MOL      0.665689
    143 O21        -7.8830    0.6940   -2.1020 o         1 MOL     -0.561446
    144 C45        -8.6470    1.7330    0.7550 c3        1 MOL      0.003341
    145 C46        -8.9230    0.3560    1.3720 c3        1 MOL     -0.010456
    146 C47        -7.8820   -0.1750    2.4000 c3        1 MOL      0.071632
    147 C48        -8.4280   -1.4590    3.1720 c3        1 MOL     -0.106944
    148 N13        -7.2960   -2.1590    3.7440 n4        1 MOL     -0.125792
    149 H67        -6.1370    1.3520    1.5740 hn        1 MOL      0.165292
    150 H68        -7.3380    2.8550   -0.5650 h1        1 MOL      0.117738
    151 H69        -9.4070    1.9630   -0.0000 hc        1 MOL      0.029703
    152 H70        -8.6880    2.4280    1.5900 hc        1 MOL      0.029703
    153 H71        -8.9920   -0.3980    0.5860 hc        1 MOL      0.001167
    154 H72        -9.8740    0.5300    1.8840 hc        1 MOL      0.001167
    155 H73        -7.4750    0.6570    2.9900 hc        1 MOL     -0.004297
    156 H74        -7.0960   -0.5200    1.7320 hc        1 MOL     -0.004297
    157 H75        -8.8050   -2.2050    2.4810 hx        1 MOL      0.112963
    158 H76        -9.2330   -1.2050    3.8640 hx        1 MOL      0.112963
    159 H77        -7.5350   -2.9130    4.3710 hn        1 MOL      0.243784
    160 H78        -6.7400   -2.5480    2.9980 hn        1 MOL      0.243784
    161 H79        -6.6760   -1.5220    4.2250 hn        1 MOL      0.243784
    162 N14        -5.9770    0.2050   -1.0930 n         1 MOL     -0.153159
    163 C49        -5.4770   -0.8200   -1.9690 c3        1 MOL     -0.523230
    164 C50        -6.2820   -2.0770   -2.1080 c         1 MOL      0.574696
    165 O22        -6.2940   -2.9090   -1.2530 o         1 MOL     -0.529935
    166 C51        -3.9810   -1.1730   -1.6220 c3        1 MOL      0.167314
    167 C52        -3.0690    0.0330   -1.9190 c3        1 MOL     -0.251930
    168 C53        -3.2290    0.5290   -3.3390 c         1 MOL      0.781257
    169 O23        -2.7100   -0.0160   -4.3300 o         1 MOL     -0.790656
    170 O24        -4.0090    1.4850   -3.5400 o         1 MOL     -0.790656
    171 H80        -5.3790    0.4970   -0.3360 hn        1 MOL      0.131771
    172 H81        -5.6130   -0.3490   -2.9460 h1        1 MOL      0.297804
    173 H82        -3.5570   -1.9880   -2.2000 hc        1 MOL      0.004369
    174 H83        -3.9380   -1.3500   -0.5500 hc        1 MOL      0.004369
    175 H84        -2.0290   -0.2670   -1.8410 hc        1 MOL      0.043331
    176 H85        -3.3860    0.9060   -1.3410 hc        1 MOL      0.043331
    177 N15        -6.9580   -2.1980   -3.2320 n         1 MOL     -0.207071
    178 C54        -7.7450   -3.3900   -3.4460 c3        1 MOL     -0.293933
    179 H86        -7.0840   -4.2560   -3.4970 h1        1 MOL      0.114549
    180 H87        -8.4460   -3.5160   -2.6220 h1        1 MOL      0.114549
    181 H88        -8.2960   -3.2990   -4.3820 h1        1 MOL      0.114549
    182 H89        -6.8900   -1.5630   -4.0180 hn        1 MOL      0.240887
    183 Ca1        -0.1540    0.3010   -4.3700 Ca        1 MOL      1.783095
    184 O25         2.1270    1.2030   -5.4530 oh        1 MOL     -0.950162
    185 H90         2.7720    1.6340   -4.8960 ho        1 MOL      0.465068
    186 H91         2.6440    0.8390   -6.1710 ho        1 MOL      0.465068
    187 O26        -0.7440    2.7620   -3.6900 oh        1 MOL     -0.950162
    188 H92        -1.5390    3.1570   -4.0610 ho        1 MOL      0.465068
    189 H93        -0.2500    3.5000   -3.3320 ho        1 MOL      0.465068
    190 O27        -0.1470   -2.0960   -3.3860 oh        1 MOL     -0.950162
    191 H94         0.4220   -2.7940   -3.6840 ho        1 MOL      0.465068
    192 H95        -0.3090   -2.2890   -2.4620 ho        1 MOL      0.465068
@<TRIPOS>BOND
     1    1    2 1   
     2    1    4 1   
     3    1    5 1   
     4    1    6 1   
     5    2    3 2   
     6    2    7 1   
     7    7    8 1   
     8    7   15 1   
     9    8    9 1   
    10    8   11 1   
    11    8   16 1   
    12    9   10 2   
    13    9   19 1   
    14   11   12 1   
    15   11   17 1   
    16   11   18 1   
    17   12   13 1   
    18   12   14 1   
    19   19   20 1   
    20   19   28 1   
    21   20   21 1   
    22   20   23 1   
    23   20   29 1   
    24   21   22 2   
    25   21   41 1   
    26   23   24 1   
    27   23   30 1   
    28   23   31 1   
    29   24   25 1   
    30   24   32 1   
    31   24   33 1   
    32   25   26 1   
    33   25   34 1   
    34   25   35 1   
    35   26   27 1   
    36   26   36 1   
    37   26   37 1   
    38   27   38 1   
    39   27   39 1   
    40   27   40 1   
    41   41   42 1   
    42   41   49 1   
    43   42   43 1   
    44   42   45 1   
    45   42   50 1   
    46   43   44 2   
    47   43   53 1   
    48   45   46 1   
    49   45   51 1   
    50   45   52 1   
    51   46   47 1   
    52   46   48 1   
    53   53   54 1   
    54   53   57 1   
    55   54   55 1   
    56   54   58 1   
    57   54   59 1   
    58   55   56 2   
    59   55   60 1   
    60   60   61 1   
    61   60   68 1   
    62   61   62 1   
    63   61   64 1   
    64   61   69 1   
    65   62   63 2   
    66   62   72 1   
    67   64   65 1   
    68   64   70 1   
    69   64   71 1   
    70   65   66 1   
    71   65   67 1   
    72   72   73 1   
    73   72   76 1   
    74   73   74 1   
    75   73   77 1   
    76   73   78 1   
    77   74   75 2   
    78   74   79 1   
    79   79   80 1   
    80   79   86 1   
    81   80   81 1   
    82   80   83 1   
    83   80   87 1   
    84   81   82 2   
    85   81   93 1   
    86   83   84 1   
    87   83   85 1   
    88   83   88 1   
    89   84   90 1   
    90   84   91 1   
    91   84   92 1   
    92   85   89 1   
    93   93   94 1   
    94   93  101 1   
    95   94   95 1   
    96   94   97 1   
    97   94  102 1   
    98   95   96 2   
    99   95  112 1   
   100   97   98 1   
   101   97   99 1   
   102   97  103 1   
   103   98  100 1   
   104   98  104 1   
   105   98  105 1   
   106   99  106 1   
   107   99  107 1   
   108   99  108 1   
   109  100  109 1   
   110  100  110 1   
   111  100  111 1   
   112  112  113 1   
   113  112  119 1   
   114  113  114 1   
   115  113  116 1   
   116  113  120 1   
   117  114  115 2   
   118  114  126 1   
   119  116  117 1   
   120  116  118 1   
   121  116  121 1   
   122  117  123 1   
   123  117  124 1   
   124  117  125 1   
   125  118  122 1   
   126  126  127 1   
   127  126  133 1   
   128  127  128 1   
   129  127  130 1   
   130  127  134 1   
   131  128  129 2   
   132  128  140 1   
   133  130  131 1   
   134  130  132 1   
   135  130  135 1   
   136  131  137 1   
   137  131  138 1   
   138  131  139 1   
   139  132  136 1   
   140  140  141 1   
   141  140  149 1   
   142  141  142 1   
   143  141  144 1   
   144  141  150 1   
   145  142  143 2   
   146  142  162 1   
   147  144  145 1   
   148  144  151 1   
   149  144  152 1   
   150  145  146 1   
   151  145  153 1   
   152  145  154 1   
   153  146  147 1   
   154  146  155 1   
   155  146  156 1   
   156  147  148 1   
   157  147  157 1   
   158  147  158 1   
   159  148  159 1   
   160  148  160 1   
   161  148  161 1   
   162  162  163 1   
   163  162  171 1   
   164  163  164 1   
   165  163  166 1   
   166  163  172 1   
   167  164  165 2   
   168  164  177 1   
   169  166  167 1   
   170  166  173 1   
   171  166  174 1   
   172  167  168 1   
   173  167  175 1   
   174  167  176 1   
   175  168  169 1   
   176  168  170 1   
   177  177  178 1   
   178  177  182 1   
   179  178  179 1   
   180  178  180 1   
   181  178  181 1   
   182  184  185 1   
   183  184  186 1   
   184  187  188 1   
   185  187  189 1   
   186  190  191 1   
   187  190  192 1   
@<TRIPOS>SUBSTRUCTURE
     1 MOL         1 TEMP              0 ****  ****    0 ROOT
