@<TRIPOS>MOLECULE
MOL
  186   183     1     0     0
SMALL
resp


@<TRIPOS>ATOM
      1 C1          6.3740    4.5280   -3.8890 c3        1 MOL     -0.412340
      2 C2          6.2880    3.4550   -2.7690 c         1 MOL      0.816498
      3 O1          5.2070    3.2290   -2.1590 o         1 MOL     -0.739438
      4 H1          5.3940    4.6530   -4.3480 hc        1 MOL      0.106348
      5 H2          6.6980    5.4770   -3.4600 hc        1 MOL      0.106348
      6 H3          7.0910    4.2070   -4.6450 hc        1 MOL      0.106348
      7 N1          7.2940    2.6080   -2.6210 n         1 MOL     -0.599869
      8 C3          7.6230    1.5990   -1.6180 c3        1 MOL      0.110491
      9 C4          6.5350    0.6020   -1.5290 c         1 MOL      0.452420
     10 O2          5.7990    0.6350   -0.4880 o         1 MOL     -0.663301
     11 C5          8.0940    2.2030   -0.2830 c3        1 MOL     -0.118563
     12 C6          7.3370    3.3910    0.2690 c         1 MOL      0.816362
     13 O3          6.2730    3.1910    0.9110 o         1 MOL     -0.754929
     14 O4          7.8310    4.5030    0.2210 o         1 MOL     -0.754929
     15 H4          8.0180    2.7230   -3.3160 hn        1 MOL      0.311494
     16 H5          8.4530    1.0510   -2.0720 h1        1 MOL      0.033870
     17 H6          9.1060    2.5370   -0.5220 hc        1 MOL      0.020157
     18 H7          8.1190    1.3610    0.4070 hc        1 MOL      0.020157
     19 N2          6.1680   -0.0790   -2.5410 n         1 MOL     -0.204345
     20 C7          5.3340   -1.3110   -2.6620 c3        1 MOL      0.042072
     21 C8          5.9640   -2.3470   -1.7230 c         1 MOL      0.222801
     22 O5          6.6370   -3.2850   -2.2020 o         1 MOL     -0.542587
     23 C9          3.8110   -1.0530   -2.4730 c3        1 MOL      0.135796
     24 C10         2.9640   -2.3600   -2.4780 c3        1 MOL      0.156358
     25 C11         3.3010    0.0010   -3.4380 c3        1 MOL     -0.172056
     26 C12         3.0600   -3.1250   -3.8140 c3        1 MOL     -0.375876
     27 H8          6.6320    0.2130   -3.3900 hn        1 MOL      0.196225
     28 H9          5.4630   -1.7240   -3.6690 h1        1 MOL      0.035768
     29 H10         3.7570   -0.4640   -1.5590 hc        1 MOL     -0.002803
     30 H11         1.9140   -2.1230   -2.3050 hc        1 MOL      0.017568
     31 H12         3.2210   -2.8980   -1.5670 hc        1 MOL      0.017568
     32 H13         2.2350   -0.0070   -3.1980 hc        1 MOL      0.019270
     33 H14         3.7720    0.9550   -3.2000 hc        1 MOL      0.019270
     34 H15         3.5010   -0.2410   -4.4790 hc        1 MOL      0.019270
     35 H16         2.6290   -2.5060   -4.5930 hc        1 MOL      0.080757
     36 H17         4.1090   -3.3890   -3.9730 hc        1 MOL      0.080757
     37 H18         2.5270   -4.0750   -3.7090 hc        1 MOL      0.080757
     38 N3          5.8840   -2.2120   -0.4170 n         1 MOL     -0.000032
     39 C13         6.5730   -3.0170    0.6100 c3        1 MOL     -0.039612
     40 C14         5.7890   -4.2720    1.1200 c         1 MOL      0.676927
     41 O6          6.3590   -5.3180    1.2710 o         1 MOL     -0.544771
     42 C15         7.0510   -2.0490    1.7330 c3        1 MOL     -0.135818
     43 C16         7.8770   -2.7890    2.7410 c         1 MOL      0.682843
     44 O7          7.3080   -3.0190    3.8450 o         1 MOL     -0.726033
     45 O8          8.9820   -3.1480    2.3720 o         1 MOL     -0.726033
     46 H19         5.4180   -1.3670   -0.0890 hn        1 MOL      0.164930
     47 H20         7.4100   -3.5450    0.1540 h1        1 MOL      0.069359
     48 H21         6.2450   -1.4630    2.1740 hc        1 MOL      0.049956
     49 H22         7.7010   -1.2810    1.3150 hc        1 MOL      0.049956
     50 N4          4.4300   -4.4050    1.3170 n         1 MOL     -0.682959
     51 C17         3.4730   -3.3240    1.4850 c3        1 MOL      0.416093
     52 C18         2.5190   -3.4360    2.7160 c         1 MOL      0.556702
     53 O9          2.2400   -4.5110    3.2120 o         1 MOL     -0.577155
     54 H23         4.2030   -5.2160    1.8760 hn        1 MOL      0.307985
     55 H24         2.9800   -3.1950    0.5250 h1        1 MOL     -0.101304
     56 H25         4.0150   -2.3920    1.5940 h1        1 MOL     -0.101304
     57 N5          1.9480   -2.3610    3.2550 n         1 MOL     -0.471941
     58 C19         2.1440   -0.9800    2.9220 c3        1 MOL      0.295884
     59 C20         2.1950   -0.6500    1.4050 c         1 MOL      0.146179
     60 O10         3.0770   -0.0390    0.8170 o         1 MOL     -0.465668
     61 C21         3.3160   -0.4450    3.7270 c3        1 MOL     -0.260056
     62 C22         3.4760    1.0500    3.5540 c         1 MOL      0.810901
     63 O11         4.3570    1.5400    2.7900 o         1 MOL     -0.727564
     64 O12         2.7910    1.7760    4.3280 o         1 MOL     -0.727564
     65 H26         1.2660   -2.5180    3.9820 hn        1 MOL      0.270181
     66 H27         1.2980   -0.3900    3.2780 h1        1 MOL      0.046394
     67 H28         4.2390   -0.9270    3.3920 hc        1 MOL      0.053138
     68 H29         3.2520   -0.8360    4.7380 hc        1 MOL      0.053138
     69 N6          1.1750   -1.0160    0.6320 n         1 MOL     -0.159516
     70 C23        -0.1290   -1.5930    0.9490 c3        1 MOL     -0.006640
     71 C24        -0.5270   -2.8420    0.1880 c         1 MOL      0.294502
     72 O13         0.2810   -3.5370   -0.4050 o         1 MOL     -0.438830
     73 H30         1.3070   -0.7370   -0.3290 hn        1 MOL      0.278567
     74 H31        -0.8960   -0.8240    0.8390 h1        1 MOL      0.033340
     75 H32        -0.1580   -1.7760    2.0210 h1        1 MOL      0.033340
     76 N7         -1.8280   -3.1850    0.3250 n         1 MOL     -0.321323
     77 C25        -2.3550   -4.4130   -0.2000 c3        1 MOL     -0.146140
     78 C26        -2.8430   -4.2930   -1.6300 c         1 MOL      0.481849
     79 O14        -3.2190   -5.2880   -2.2170 o         1 MOL     -0.533512
     80 C27        -3.3470   -5.0880    0.8380 c3        1 MOL      0.003175
     81 C28        -2.7170   -5.4510    2.2360 c3        1 MOL     -0.183109
     82 C29        -1.2760   -5.9410    2.2060 c         1 MOL      0.646290
     83 N8         -0.3420   -5.3040    2.8430 n         1 MOL     -0.711273
     84 O15        -1.0260   -6.8800    1.4740 o         1 MOL     -0.563036
     85 H33        -2.3860   -2.6450    0.9770 hn        1 MOL      0.275991
     86 H34        -1.5590   -5.1570   -0.1040 h1        1 MOL      0.175764
     87 H35        -3.6860   -5.9930    0.3450 hc        1 MOL      0.046959
     88 H36        -4.1670   -4.3700    1.0020 hc        1 MOL      0.046959
     89 H37        -3.3530   -6.1730    2.7490 hc        1 MOL      0.032143
     90 H38        -2.7050   -4.6130    2.9360 hc        1 MOL      0.032143
     91 H39        -0.5640   -4.5200    3.4450 hn        1 MOL      0.345060
     92 H40         0.6150   -5.5640    2.6650 hn        1 MOL      0.345060
     93 N9         -2.9720   -3.0900   -2.2060 n         1 MOL     -0.213110
     94 C30        -3.3230   -2.8050   -3.6330 c3        1 MOL     -0.111274
     95 C31        -4.7010   -2.0770   -3.7260 c         1 MOL      0.547791
     96 O16        -5.3510   -2.1620   -4.7900 o         1 MOL     -0.546296
     97 C32        -2.1420   -2.0900   -4.3090 c3        1 MOL      0.235850
     98 C33        -0.9130   -2.9820   -4.4880 c3        1 MOL     -0.208839
     99 C34        -1.7160   -0.6830   -3.7220 c3        1 MOL     -0.208839
    100 H41        -2.8320   -2.2790   -1.6210 hn        1 MOL      0.166379
    101 H42        -3.4530   -3.7190   -4.2000 h1        1 MOL      0.101462
    102 H43        -2.5420   -1.9140   -5.3070 hc        1 MOL     -0.026796
    103 H44        -0.3270   -3.0480   -3.5740 hc        1 MOL      0.051562
    104 H45        -1.2000   -3.9860   -4.8170 hc        1 MOL      0.051562
    105 H46        -0.2540   -2.5590   -5.2420 hc        1 MOL      0.051562
    106 H47        -2.6340   -0.1610   -3.4630 hc        1 MOL      0.051562
    107 H48        -1.1150   -0.8490   -2.8310 hc        1 MOL      0.051562
    108 H49        -1.1850   -0.0290   -4.4240 hc        1 MOL      0.051562
    109 N10        -5.1480   -1.4200   -2.6500 n         1 MOL     -0.416795
    110 C35        -6.5140   -0.9980   -2.4820 c3        1 MOL      0.056907
    111 C36        -6.7810    0.2780   -1.7020 c         1 MOL      0.551679
    112 O17        -7.7220    1.0280   -2.0190 o         1 MOL     -0.553689
    113 C37        -7.2810   -2.2580   -1.8920 c3        1 MOL     -0.250942
    114 C38        -6.6140   -2.8080   -0.5540 c         1 MOL      0.632423
    115 N11        -7.2440   -3.7880    0.0700 n         1 MOL     -0.830481
    116 O18        -5.7480   -2.2240    0.0420 o         1 MOL     -0.489374
    117 H50        -4.4750   -1.2970   -1.9150 hn        1 MOL      0.236809
    118 H51        -6.9900   -0.8030   -3.4450 h1        1 MOL      0.090075
    119 H52        -7.2370   -3.0690   -2.6250 hc        1 MOL      0.100232
    120 H53        -8.3240   -2.0840   -1.6650 hc        1 MOL      0.100232
    121 H54        -8.1950   -4.0050   -0.1730 hn        1 MOL      0.380422
    122 H55        -6.9460   -3.9740    1.0170 hn        1 MOL      0.380422
    123 N12        -5.9490    0.6340   -0.6900 n         1 MOL     -0.441755
    124 C39        -6.0540    1.8810    0.0860 c3        1 MOL      0.145197
    125 C40        -4.7180    2.4900    0.5330 c         1 MOL      0.636950
    126 O19        -3.7150    1.8130    0.3040 o         1 MOL     -0.534336
    127 C41        -6.9030    1.7920    1.3920 c3        1 MOL     -0.096107
    128 C42        -8.2080    0.9550    1.2290 ca        1 MOL     -0.056185
    129 C43        -8.1570   -0.4900    1.3140 ca        1 MOL     -0.080098
    130 C44        -9.4420    1.6060    1.1240 ca        1 MOL     -0.080098
    131 C45        -9.3730   -1.2060    1.2660 ca        1 MOL     -0.279169
    132 C46       -10.6780    0.8680    0.9620 ca        1 MOL     -0.279169
    133 C47       -10.5810   -0.5240    1.0650 ca        1 MOL      0.358273
    134 O20       -11.7720   -1.1720    1.1560 oh        1 MOL     -0.541754
    135 H56        -5.1780    0.0130   -0.5030 hn        1 MOL      0.248501
    136 H57        -6.5330    2.6380   -0.5300 h1        1 MOL      0.025392
    137 H58        -7.0580    2.7520    1.8780 hc        1 MOL      0.078285
    138 H59        -6.2810    1.2440    2.1000 hc        1 MOL      0.078285
    139 H60        -7.2420   -1.0340    1.1680 ha        1 MOL      0.106227
    140 H61        -9.4770    2.6830    1.1560 ha        1 MOL      0.106227
    141 H62        -9.3770   -2.2920    1.3040 ha        1 MOL      0.133585
    142 H63       -11.5930    1.4060    0.8260 ha        1 MOL      0.133585
    143 H64       -12.4990   -0.5530    1.0140 ho        1 MOL      0.375882
    144 N13        -4.6790    3.7250    1.0670 n         1 MOL     -0.687050
    145 C48        -3.5530    4.4490    1.6230 c3        1 MOL      0.344336
    146 C49        -2.3430    4.5430    0.7300 c         1 MOL      0.150926
    147 O21        -1.3000    5.0680    1.2160 o         1 MOL     -0.420847
    148 C50        -3.1680    3.9520    3.0730 c3        1 MOL     -0.016472
    149 C51        -4.3210    4.1890    4.0750 c3        1 MOL     -0.262397
    150 C52        -3.7440    4.3330    5.4550 c         1 MOL      0.719918
    151 O22        -3.5970    3.2400    6.1420 o         1 MOL     -0.732727
    152 O23        -3.5560    5.4630    5.9670 o         1 MOL     -0.732727
    153 H65        -5.6160    4.0800    1.2600 hn        1 MOL      0.302649
    154 H66        -3.8610    5.4850    1.7820 h1        1 MOL      0.032175
    155 H67        -2.3080    4.5220    3.4160 hc        1 MOL      0.073969
    156 H68        -2.9560    2.8860    3.0300 hc        1 MOL      0.073969
    157 H69        -5.0820    3.4130    3.9520 hc        1 MOL      0.005855
    158 H70        -4.7310    5.1640    3.7890 hc        1 MOL      0.005855
    159 N14        -2.4090    4.1470   -0.5240 n         1 MOL     -0.216389
    160 C53        -1.3190    3.9690   -1.4090 c3        1 MOL     -0.255016
    161 C54        -1.4250    4.8610   -2.6550 c         1 MOL      0.570071
    162 O24        -0.5570    4.8380   -3.4660 o         1 MOL     -0.531880
    163 C55        -1.1330    2.5070   -1.7360 c3        1 MOL      0.131795
    164 C56        -0.4690    1.7100   -0.6480 c3        1 MOL     -0.059342
    165 C57         1.0150    2.1610   -0.3310 c         1 MOL      0.422570
    166 O25         1.9420    2.1250   -1.2100 o         1 MOL     -0.592233
    167 O26         1.2740    2.4960    0.8760 o         1 MOL     -0.592233
    168 H71        -3.3250    3.8390   -0.8350 hn        1 MOL      0.179380
    169 H72        -0.4070    4.2690   -0.8880 h1        1 MOL      0.205900
    170 H73        -0.4620    2.4140   -2.5850 hc        1 MOL     -0.025644
    171 H74        -2.0900    2.0780   -2.0230 hc        1 MOL     -0.025644
    172 H75        -0.5020    0.6520   -0.9380 hc        1 MOL      0.037743
    173 H76        -0.9690    1.8630    0.3080 hc        1 MOL      0.037743
    174 N15        -2.5560    5.4910   -2.9780 n         1 MOL     -0.273207
    175 C58        -2.7180    6.3430   -4.1530 c3        1 MOL     -0.221376
    176 H77        -3.7610    6.3290   -4.4710 h1        1 MOL      0.093197
    177 H78        -2.4290    7.3640   -3.9060 h1        1 MOL      0.093197
    178 H79        -2.0880    5.9710   -4.9610 h1        1 MOL      0.093197
    179 H80        -3.3770    5.5290   -2.3840 hn        1 MOL      0.228864
    180 Ca1         3.9510    2.5050    0.3670 Ca        1 MOL      1.753284
    181 O27         3.1350    4.1160    2.3350 oh        1 MOL     -0.779578
    182 H81         3.0540    5.0710    2.2960 ho        1 MOL      0.380550
    183 H82         3.7080    3.9610    3.0890 ho        1 MOL      0.380550
    184 O28         4.0040    5.7080   -0.3080 oh        1 MOL     -0.779578
    185 H83         4.4500    6.5430   -0.4680 ho        1 MOL      0.380550
    186 H84         3.9080    5.3330   -1.1830 ho        1 MOL      0.380550
@<TRIPOS>BOND
     1    1    2 1   
     2    1    4 1   
     3    1    5 1   
     4    1    6 1   
     5    2    3 2   
     6    2    7 1   
     7    7    8 1   
     8    7   15 1   
     9    8    9 1   
    10    8   11 1   
    11    8   16 1   
    12    9   10 2   
    13    9   19 1   
    14   11   12 1   
    15   11   17 1   
    16   11   18 1   
    17   12   13 1   
    18   12   14 1   
    19   19   20 1   
    20   19   27 1   
    21   20   21 1   
    22   20   23 1   
    23   20   28 1   
    24   21   22 2   
    25   21   38 1   
    26   23   24 1   
    27   23   25 1   
    28   23   29 1   
    29   24   26 1   
    30   24   30 1   
    31   24   31 1   
    32   25   32 1   
    33   25   33 1   
    34   25   34 1   
    35   26   35 1   
    36   26   36 1   
    37   26   37 1   
    38   38   39 1   
    39   38   46 1   
    40   39   40 1   
    41   39   42 1   
    42   39   47 1   
    43   40   41 2   
    44   40   50 1   
    45   42   43 1   
    46   42   48 1   
    47   42   49 1   
    48   43   44 1   
    49   43   45 1   
    50   50   51 1   
    51   50   54 1   
    52   51   52 1   
    53   51   55 1   
    54   51   56 1   
    55   52   53 2   
    56   52   57 1   
    57   57   58 1   
    58   57   65 1   
    59   58   59 1   
    60   58   61 1   
    61   58   66 1   
    62   59   60 2   
    63   59   69 1   
    64   61   62 1   
    65   61   67 1   
    66   61   68 1   
    67   62   63 1   
    68   62   64 1   
    69   69   70 1   
    70   69   73 1   
    71   70   71 1   
    72   70   74 1   
    73   70   75 1   
    74   71   72 2   
    75   71   76 1   
    76   76   77 1   
    77   76   85 1   
    78   77   78 1   
    79   77   80 1   
    80   77   86 1   
    81   78   79 2   
    82   78   93 1   
    83   80   81 1   
    84   80   87 1   
    85   80   88 1   
    86   81   82 1   
    87   81   89 1   
    88   81   90 1   
    89   82   83 1   
    90   82   84 2   
    91   83   91 1   
    92   83   92 1   
    93   93   94 1   
    94   93  100 1   
    95   94   95 1   
    96   94   97 1   
    97   94  101 1   
    98   95   96 2   
    99   95  109 1   
   100   97   98 1   
   101   97   99 1   
   102   97  102 1   
   103   98  103 1   
   104   98  104 1   
   105   98  105 1   
   106   99  106 1   
   107   99  107 1   
   108   99  108 1   
   109  109  110 1   
   110  109  117 1   
   111  110  111 1   
   112  110  113 1   
   113  110  118 1   
   114  111  112 2   
   115  111  123 1   
   116  113  114 1   
   117  113  119 1   
   118  113  120 1   
   119  114  115 1   
   120  114  116 2   
   121  115  121 1   
   122  115  122 1   
   123  123  124 1   
   124  123  135 1   
   125  124  125 1   
   126  124  127 1   
   127  124  136 1   
   128  125  126 2   
   129  125  144 1   
   130  127  128 1   
   131  127  137 1   
   132  127  138 1   
   133  128  129 ar  
   134  128  130 ar  
   135  129  131 ar  
   136  129  139 1   
   137  130  132 ar  
   138  130  140 1   
   139  131  133 ar  
   140  131  141 1   
   141  132  133 ar  
   142  132  142 1   
   143  133  134 1   
   144  134  143 1   
   145  144  145 1   
   146  144  153 1   
   147  145  146 1   
   148  145  148 1   
   149  145  154 1   
   150  146  147 2   
   151  146  159 1   
   152  148  149 1   
   153  148  155 1   
   154  148  156 1   
   155  149  150 1   
   156  149  157 1   
   157  149  158 1   
   158  150  151 1   
   159  150  152 1   
   160  159  160 1   
   161  159  168 1   
   162  160  161 1   
   163  160  163 1   
   164  160  169 1   
   165  161  162 2   
   166  161  174 1   
   167  163  164 1   
   168  163  170 1   
   169  163  171 1   
   170  164  165 1   
   171  164  172 1   
   172  164  173 1   
   173  165  166 1   
   174  165  167 1   
   175  174  175 1   
   176  174  179 1   
   177  175  176 1   
   178  175  177 1   
   179  175  178 1   
   180  181  182 1   
   181  181  183 1   
   182  184  185 1   
   183  184  186 1   
@<TRIPOS>SUBSTRUCTURE
     1 MOL         1 TEMP              0 ****  ****    0 ROOT
