@<TRIPOS>MOLECULE
MOL
  181   177     1     0     0
SMALL
resp


@<TRIPOS>ATOM
      1 C1          9.8880    6.7200    0.8170 c3        1 MOL     -0.438403
      2 C2         10.2340    5.3610    1.2690 c         1 MOL      0.744684
      3 O1         10.2760    5.0520    2.4570 o         1 MOL     -0.628246
      4 H1         10.1020    7.4330    1.6140 hc        1 MOL      0.124990
      5 H2         10.4790    6.9720   -0.0630 hc        1 MOL      0.124990
      6 H3          8.8280    6.7620    0.5680 hc        1 MOL      0.124990
      7 N1         10.7590    4.4210    0.5080 n         1 MOL     -0.465548
      8 C3         10.8510    4.3240   -0.9360 c3        1 MOL     -0.072453
      9 C4         12.0220    3.4280   -1.5000 c         1 MOL      0.564279
     10 O2         12.7240    3.7930   -2.4460 o         1 MOL     -0.551626
     11 C5          9.5070    3.9490   -1.6180 c3        1 MOL     -0.084955
     12 C6          8.7770    2.7280   -1.0680 c         1 MOL      0.657008
     13 O3          7.5070    2.8010   -0.9770 o         1 MOL     -0.717855
     14 O4          9.3810    1.7050   -0.7270 o         1 MOL     -0.717855
     15 H4         11.0890    3.5620    0.9240 hn        1 MOL      0.258545
     16 H5         11.1370    5.3070   -1.3190 h1        1 MOL      0.063910
     17 H6          9.7230    3.8870   -2.6840 hc        1 MOL      0.047655
     18 H7          8.8290    4.8000   -1.5590 hc        1 MOL      0.047655
     19 N2         12.2420    2.2820   -0.8830 n         1 MOL     -0.424690
     20 C7         13.1340    1.2090   -1.3700 c3        1 MOL      0.076339
     21 C8         12.6170   -0.2800   -1.3740 c         1 MOL      0.390035
     22 O5         13.3280   -1.2090   -1.8010 o         1 MOL     -0.527396
     23 C9         14.4280    1.4100   -0.4820 c3        1 MOL     -0.146812
     24 H8         11.5970    2.0510   -0.1380 hn        1 MOL      0.310905
     25 H9         13.4090    1.4110   -2.4020 h1        1 MOL      0.089029
     26 H10        14.1670    1.1820    0.5510 hc        1 MOL      0.050647
     27 H11        15.2890    0.7880   -0.7360 hc        1 MOL      0.050647
     28 H12        14.7610    2.4460   -0.4180 hc        1 MOL      0.050647
     29 N3         11.3370   -0.4830   -1.1270 n         1 MOL     -0.069928
     30 C10        10.5770   -1.7080   -1.1530 c3        1 MOL     -0.151691
     31 C11         9.1320   -1.7120   -1.7600 c         1 MOL      0.621184
     32 O6          8.3610   -0.8880   -1.3330 o         1 MOL     -0.509292
     33 C12        10.5060   -2.3730    0.2660 c3        1 MOL     -0.130277
     34 C13        10.2680   -1.3430    1.3770 c         1 MOL      0.665391
     35 O7          9.1580   -0.8780    1.7110 o         1 MOL     -0.699698
     36 O8         11.2790   -0.9300    1.9880 o         1 MOL     -0.699698
     37 H13        10.7180    0.3000   -1.0120 hn        1 MOL      0.126907
     38 H14        11.1000   -2.3750   -1.8330 h1        1 MOL      0.042857
     39 H15        11.4570   -2.8610    0.4610 hc        1 MOL      0.049572
     40 H16         9.6950   -3.0950    0.3640 hc        1 MOL      0.049572
     41 N4          8.8090   -2.6010   -2.7480 n         1 MOL     -0.552680
     42 C14         7.5860   -2.6980   -3.5640 c3        1 MOL      0.026194
     43 C15         6.3670   -3.2960   -2.8220 c         1 MOL      0.455941
     44 O9          5.4820   -3.8270   -3.4520 o         1 MOL     -0.532266
     45 H17         9.4890   -3.2510   -3.1170 hn        1 MOL      0.330447
     46 H18         7.8460   -3.1080   -4.5360 h1        1 MOL      0.086252
     47 H19         7.2960   -1.6550   -3.6690 h1        1 MOL      0.086252
     48 N5          6.2100   -3.0840   -1.5020 n         1 MOL     -0.352887
     49 C16         5.2390   -3.7900   -0.7190 c3        1 MOL      0.171918
     50 C17         3.8260   -3.0410   -0.6930 c         1 MOL      0.604741
     51 O10         3.6720   -1.8390   -0.8680 o         1 MOL     -0.483638
     52 C18         5.7980   -3.9770    0.6580 c3        1 MOL     -0.263030
     53 C19         5.8660   -2.7190    1.5610 c         1 MOL      0.712991
     54 N6          5.2030   -2.8730    2.6560 n         1 MOL     -0.743405
     55 O11         6.3390   -1.6680    1.1640 o         1 MOL     -0.672503
     56 H20         6.8460   -2.4680   -1.0200 hn        1 MOL      0.226060
     57 H21         4.9910   -4.7300   -1.2150 h1        1 MOL      0.039158
     58 H22         6.7610   -4.4670    0.5880 hc        1 MOL      0.051544
     59 H23         5.1230   -4.7070    1.1230 hc        1 MOL      0.051544
     60 H24         4.8010   -3.7890    2.7970 hn        1 MOL      0.371090
     61 H25         5.1910   -2.0780    3.2710 hn        1 MOL      0.371090
     62 N7          2.8190   -3.8670   -0.4210 n         1 MOL     -0.595996
     63 C20         1.4270   -3.4100   -0.0430 c3        1 MOL     -0.043992
     64 C21         1.3070   -2.7820    1.3390 c         1 MOL      0.578948
     65 O12         2.2450   -2.2380    1.9450 o         1 MOL     -0.516695
     66 H26         3.0390   -4.8490   -0.3090 hn        1 MOL      0.336829
     67 H27         0.8690   -4.3430   -0.0720 h1        1 MOL      0.131399
     68 H28         0.9110   -2.7190   -0.7240 h1        1 MOL      0.131399
     69 N8          0.0460   -2.5950    1.8470 n         1 MOL     -0.606878
     70 C22        -1.0600   -3.5940    1.6570 c3        1 MOL      0.031687
     71 C23        -2.4030   -2.8640    1.5620 c         1 MOL      0.475511
     72 O13        -3.4600   -3.4500    1.8450 o         1 MOL     -0.547114
     73 C24        -1.0960   -4.7500    2.6700 c3        1 MOL      0.436065
     74 C25        -1.5850   -6.0430    2.0950 c3        1 MOL     -0.219036
     75 O14         0.1650   -4.9300    3.2840 oh        1 MOL     -0.643850
     76 H29        -0.1190   -1.8370    2.4970 hn        1 MOL      0.321478
     77 H30        -1.0180   -3.9440    0.6220 h1        1 MOL      0.060267
     78 H31        -1.8480   -4.4990    3.4170 h1        1 MOL     -0.044287
     79 H32         0.3990   -4.1040    3.7180 ho        1 MOL      0.373092
     80 H33        -1.2140   -6.1350    1.0730 hc        1 MOL      0.061170
     81 H34        -1.2690   -6.9180    2.6600 hc        1 MOL      0.061170
     82 H35        -2.6650   -6.1150    1.9520 hc        1 MOL      0.061170
     83 N9         -2.3950   -1.6180    1.1450 n         1 MOL     -0.273436
     84 C26        -3.6040   -0.7210    1.1800 c3        1 MOL     -0.227447
     85 C27        -3.9820   -0.2610   -0.2420 c         1 MOL      0.488789
     86 O15        -3.2060    0.2220   -1.0680 o         1 MOL     -0.536785
     87 C28        -3.2880    0.4770    2.1080 c3        1 MOL      0.125045
     88 C29        -3.2150    0.1740    3.6380 c3        1 MOL     -0.029935
     89 C30        -4.4350    1.5070    1.8900 c3        1 MOL     -0.188279
     90 C31        -2.5440    1.3260    4.3620 c3        1 MOL     -0.077260
     91 H36        -1.5170   -1.2630    0.7950 hn        1 MOL      0.238756
     92 H37        -4.4480   -1.3020    1.5740 h1        1 MOL      0.144948
     93 H38        -2.3950    1.0180    1.8210 hc        1 MOL      0.039574
     94 H39        -2.5190   -0.6510    3.7860 hc        1 MOL      0.015600
     95 H40        -4.1980   -0.0070    4.0650 hc        1 MOL      0.015600
     96 H41        -5.4130    1.0200    1.8610 hc        1 MOL      0.058528
     97 H42        -4.4160    2.1770    2.7530 hc        1 MOL      0.058528
     98 H43        -4.2790    2.0750    0.9760 hc        1 MOL      0.058528
     99 H44        -2.3120    0.9730    5.3620 hc        1 MOL      0.010430
    100 H45        -1.5830    1.6210    3.9480 hc        1 MOL      0.010430
    101 H46        -3.1340    2.2330    4.4890 hc        1 MOL      0.010430
    102 N10        -5.2010   -0.5490   -0.6920 n         1 MOL     -0.297380
    103 C32        -6.3440   -1.2890   -0.0690 c3        1 MOL      0.148810
    104 C33        -7.7220   -0.9690   -0.6260 c         1 MOL      0.446088
    105 O16        -7.9360   -0.5870   -1.7950 o         1 MOL     -0.431627
    106 C34        -6.0700   -2.8110   -0.3280 c3        1 MOL     -0.260204
    107 C35        -6.2990   -3.3360   -1.7680 c         1 MOL      0.704725
    108 O17        -7.3610   -3.8620   -2.1540 o         1 MOL     -0.706522
    109 O18        -5.3780   -3.0690   -2.5610 o         1 MOL     -0.706522
    110 H47        -5.3490   -0.1060   -1.5840 hn        1 MOL      0.312111
    111 H48        -6.4530   -1.0770    0.9970 h1        1 MOL      0.012229
    112 H49        -6.7500   -3.4260    0.2720 hc        1 MOL      0.031077
    113 H50        -5.0770   -3.0390    0.0500 hc        1 MOL      0.031077
    114 N11        -8.7290   -1.0680    0.2330 n         1 MOL     -0.531609
    115 C36       -10.1350   -0.8070   -0.1990 c3        1 MOL      0.219977
    116 C37       -10.9230   -0.3510    0.9960 c         1 MOL      0.258237
    117 O19       -10.8760   -1.0440    2.0350 o         1 MOL     -0.527021
    118 C38       -10.7760   -2.0570   -0.8370 c3        1 MOL      0.044336
    119 C39       -12.2240   -1.9600   -1.3440 ca        1 MOL     -0.104832
    120 C40       -13.3740   -1.9040   -0.5350 ca        1 MOL     -0.056507
    121 C41       -12.4660   -1.6990   -2.7570 ca        1 MOL     -0.056507
    122 C42       -14.6180   -1.6670   -1.0380 ca        1 MOL     -0.167625
    123 C43       -13.7310   -1.3610   -3.2830 ca        1 MOL     -0.167625
    124 C44       -14.7820   -1.2330   -2.3590 ca        1 MOL     -0.064121
    125 H51        -8.5610   -1.4370    1.1580 hn        1 MOL      0.326437
    126 H52       -10.0990   -0.0360   -0.9700 h1        1 MOL      0.017154
    127 H53       -10.6550   -2.8810   -0.1290 hc        1 MOL      0.037589
    128 H54       -10.1560   -2.4300   -1.6560 hc        1 MOL      0.037589
    129 H55       -13.3090   -2.1480    0.5210 ha        1 MOL      0.111581
    130 H56       -11.6080   -1.8070   -3.4060 ha        1 MOL      0.111581
    131 H57       -15.4290   -1.7750   -0.3300 ha        1 MOL      0.114059
    132 H58       -13.9070   -1.1580   -4.3370 ha        1 MOL      0.114059
    133 H59       -15.7880   -0.9230   -2.6080 ha        1 MOL      0.071368
    134 N12       -11.7950    0.6750    0.9470 n         1 MOL     -0.020043
    135 C45       -12.1920    1.4050   -0.2470 c3        1 MOL     -0.020741
    136 C46       -11.1420    2.3820   -0.7260 c         1 MOL      0.528189
    137 O20       -11.3400    2.9500   -1.7940 o         1 MOL     -0.553447
    138 C47       -13.4600    2.0580    0.1690 c3        1 MOL     -0.115012
    139 C48       -13.2180    2.4300    1.6870 c3        1 MOL      0.017136
    140 C49       -12.4890    1.1050    2.0980 c3        1 MOL     -0.346848
    141 H60       -12.4570    0.7200   -1.0600 h1        1 MOL      0.087346
    142 H61       -13.5370    2.9630   -0.4330 hc        1 MOL      0.043344
    143 H62       -14.3480    1.4250    0.1280 hc        1 MOL      0.043344
    144 H63       -12.6030    3.3170    1.7770 hc        1 MOL      0.023299
    145 H64       -14.1520    2.4870    2.2400 hc        1 MOL      0.023299
    146 H65       -11.8880    1.3310    2.9750 h1        1 MOL      0.139049
    147 H66       -13.3030    0.4110    2.3340 h1        1 MOL      0.139049
    148 N13       -10.0900    2.6950    0.0440 n         1 MOL     -0.176658
    149 C50        -9.0880    3.7460   -0.0770 c3        1 MOL      0.071118
    150 C51        -9.1070    4.5780    1.2430 c         1 MOL      0.400944
    151 O21        -9.4450    4.1300    2.3050 o         1 MOL     -0.556421
    152 C52        -7.7280    3.0510   -0.3530 c3        1 MOL     -0.042930
    153 C53        -7.5460    2.5510   -1.7870 c3        1 MOL      0.009605
    154 C54        -7.0350    3.6990   -2.7010 c         1 MOL      0.703778
    155 O22        -7.8320    4.6290   -2.9910 o         1 MOL     -0.716949
    156 O23        -5.8620    3.6630   -3.1540 o         1 MOL     -0.716949
    157 H67       -10.0150    2.2630    0.9470 hn        1 MOL      0.215563
    158 H68        -9.3150    4.4650   -0.8680 h1        1 MOL      0.052768
    159 H69        -7.6080    2.1900    0.3020 hc        1 MOL     -0.012696
    160 H70        -6.9020    3.7430   -0.1800 hc        1 MOL     -0.012696
    161 H71        -8.5140    2.1890   -2.1060 hc        1 MOL     -0.039447
    162 H72        -6.7330    1.8330   -1.8960 hc        1 MOL     -0.039447
    163 N14        -8.8220    5.8960    1.2050 n         1 MOL     -0.324230
    164 C55        -8.3120    6.6770    0.0280 c3        1 MOL     -0.190838
    165 H73        -7.3880    6.2270   -0.3330 h1        1 MOL      0.100801
    166 H74        -9.0570    6.6640   -0.7680 h1        1 MOL      0.100801
    167 H75        -8.1200    7.7070    0.3300 h1        1 MOL      0.100801
    168 H76        -8.9400    6.3690    2.0870 hn        1 MOL      0.257133
    169 Ca1         7.4320    0.6820    0.5400 Ca        1 MOL      1.712341
    170 O24         5.5960    0.0560   -1.2250 oh        1 MOL     -0.761853
    171 H77         5.4800    0.7520   -1.8700 ho        1 MOL      0.378233
    172 H78         4.8140   -0.5020   -1.3330 ho        1 MOL      0.378233
    173 O25         5.0740    2.0460    1.1590 oh        1 MOL     -0.761853
    174 H79         4.9730    2.7170    1.8390 ho        1 MOL      0.378233
    175 H80         4.3280    1.4650    1.2920 ho        1 MOL      0.378233
    176 O26         6.5700    0.8950    3.2640 oh        1 MOL     -0.761853
    177 H81         5.8080    1.4220    3.4860 ho        1 MOL      0.378233
    178 H82         6.6830    0.3090    4.0160 ho        1 MOL      0.378233
    179 O27         8.8390    2.1860    2.1890 oh        1 MOL     -0.761853
    180 H83         9.7940    2.1960    2.2090 ho        1 MOL      0.378233
    181 H84         8.5790    1.9450    3.0820 ho        1 MOL      0.378233
@<TRIPOS>BOND
     1    1    2 1   
     2    1    4 1   
     3    1    5 1   
     4    1    6 1   
     5    2    3 2   
     6    2    7 1   
     7    7    8 1   
     8    7   15 1   
     9    8    9 1   
    10    8   11 1   
    11    8   16 1   
    12    9   10 2   
    13    9   19 1   
    14   11   12 1   
    15   11   17 1   
    16   11   18 1   
    17   12   13 1   
    18   12   14 1   
    19   19   20 1   
    20   19   24 1   
    21   20   21 1   
    22   20   23 1   
    23   20   25 1   
    24   21   22 2   
    25   21   29 1   
    26   23   26 1   
    27   23   27 1   
    28   23   28 1   
    29   29   30 1   
    30   29   37 1   
    31   30   31 1   
    32   30   33 1   
    33   30   38 1   
    34   31   32 2   
    35   31   41 1   
    36   33   34 1   
    37   33   39 1   
    38   33   40 1   
    39   34   35 1   
    40   34   36 1   
    41   41   42 1   
    42   41   45 1   
    43   42   43 1   
    44   42   46 1   
    45   42   47 1   
    46   43   44 2   
    47   43   48 1   
    48   48   49 1   
    49   48   56 1   
    50   49   50 1   
    51   49   52 1   
    52   49   57 1   
    53   50   51 2   
    54   50   62 1   
    55   52   53 1   
    56   52   58 1   
    57   52   59 1   
    58   53   54 1   
    59   53   55 2   
    60   54   60 1   
    61   54   61 1   
    62   62   63 1   
    63   62   66 1   
    64   63   64 1   
    65   63   67 1   
    66   63   68 1   
    67   64   65 2   
    68   64   69 1   
    69   69   70 1   
    70   69   76 1   
    71   70   71 1   
    72   70   73 1   
    73   70   77 1   
    74   71   72 2   
    75   71   83 1   
    76   73   74 1   
    77   73   75 1   
    78   73   78 1   
    79   74   80 1   
    80   74   81 1   
    81   74   82 1   
    82   75   79 1   
    83   83   84 1   
    84   83   91 1   
    85   84   85 1   
    86   84   87 1   
    87   84   92 1   
    88   85   86 2   
    89   85  102 1   
    90   87   88 1   
    91   87   89 1   
    92   87   93 1   
    93   88   90 1   
    94   88   94 1   
    95   88   95 1   
    96   89   96 1   
    97   89   97 1   
    98   89   98 1   
    99   90   99 1   
   100   90  100 1   
   101   90  101 1   
   102  102  103 1   
   103  102  110 1   
   104  103  104 1   
   105  103  106 1   
   106  103  111 1   
   107  104  105 2   
   108  104  114 1   
   109  106  107 1   
   110  106  112 1   
   111  106  113 1   
   112  107  108 1   
   113  107  109 1   
   114  114  115 1   
   115  114  125 1   
   116  115  116 1   
   117  115  118 1   
   118  115  126 1   
   119  116  117 2   
   120  116  134 1   
   121  118  119 1   
   122  118  127 1   
   123  118  128 1   
   124  119  120 ar  
   125  119  121 ar  
   126  120  122 ar  
   127  120  129 1   
   128  121  123 ar  
   129  121  130 1   
   130  122  124 ar  
   131  122  131 1   
   132  123  124 ar  
   133  123  132 1   
   134  124  133 1   
   135  134  135 1   
   136  134  140 1   
   137  135  136 1   
   138  135  138 1   
   139  135  141 1   
   140  136  137 2   
   141  136  148 1   
   142  138  139 1   
   143  138  142 1   
   144  138  143 1   
   145  139  140 1   
   146  139  144 1   
   147  139  145 1   
   148  140  146 1   
   149  140  147 1   
   150  148  149 1   
   151  148  157 1   
   152  149  150 1   
   153  149  152 1   
   154  149  158 1   
   155  150  151 2   
   156  150  163 1   
   157  152  153 1   
   158  152  159 1   
   159  152  160 1   
   160  153  154 1   
   161  153  161 1   
   162  153  162 1   
   163  154  155 1   
   164  154  156 1   
   165  163  164 1   
   166  163  168 1   
   167  164  165 1   
   168  164  166 1   
   169  164  167 1   
   170  170  171 1   
   171  170  172 1   
   172  173  174 1   
   173  173  175 1   
   174  176  177 1   
   175  176  178 1   
   176  179  180 1   
   177  179  181 1   
@<TRIPOS>SUBSTRUCTURE
     1 MOL         1 TEMP              0 ****  ****    0 ROOT
