@<TRIPOS>MOLECULE
MOL
  192   187     1     0     0
SMALL
resp


@<TRIPOS>ATOM
      1 C1         -8.0940    1.3260   -3.0560 c3        1 MOL     -0.431880
      2 C2         -7.4900    1.0600   -1.6340 c         1 MOL      0.700876
      3 O1         -6.5780    1.7550   -1.1550 o         1 MOL     -0.604311
      4 H1         -7.7990    2.3180   -3.3960 hc        1 MOL      0.116823
      5 H2         -7.7220    0.5770   -3.7560 hc        1 MOL      0.116823
      6 H3         -9.1810    1.2680   -3.0060 hc        1 MOL      0.116823
      7 N1         -7.9500    0.0050   -0.9100 n         1 MOL     -0.521957
      8 C3         -7.6560   -0.1350    0.5610 c3        1 MOL      0.059109
      9 C4         -6.9680   -1.4580    0.8160 c         1 MOL      0.239011
     10 O2         -6.6420   -1.7010    1.9730 o         1 MOL     -0.453190
     11 C5         -8.8730    0.0010    1.4800 c3        1 MOL     -0.078835
     12 C6        -10.0940   -0.9310    1.0560 c         1 MOL      0.646860
     13 O3        -11.2380   -0.5440    1.3030 o         1 MOL     -0.682299
     14 O4         -9.8980   -2.0260    0.4640 o         1 MOL     -0.682299
     15 H4         -8.6440   -0.6190   -1.3070 hn        1 MOL      0.267884
     16 H5         -6.8670    0.5240    0.9240 h1        1 MOL      0.105071
     17 H6         -9.2590    1.0180    1.5730 hc        1 MOL      0.033099
     18 H7         -8.5470   -0.2280    2.4910 hc        1 MOL      0.033099
     19 N2         -6.6610   -2.2690   -0.1350 n         1 MOL     -0.090977
     20 C7         -6.1420   -3.6430    0.0140 c3        1 MOL     -0.000018
     21 C8         -4.7690   -3.7870    0.7660 c         1 MOL      0.378644
     22 O5         -4.6000   -4.8580    1.4400 o         1 MOL     -0.544836
     23 C9         -6.0510   -4.3170   -1.3010 c3        1 MOL     -0.080715
     24 C10        -7.3160   -4.4100   -2.2360 c3        1 MOL     -0.107489
     25 C11        -8.5110   -5.1340   -1.6300 c3        1 MOL     -0.001136
     26 C12        -9.7400   -4.7720   -2.4850 c3        1 MOL      0.171373
     27 N3        -10.8960   -5.7090   -2.4070 n4        1 MOL     -0.338354
     28 H8         -6.8930   -1.9890   -1.0820 hn        1 MOL      0.140374
     29 H9         -6.8510   -4.1390    0.6720 h1        1 MOL      0.113012
     30 H10        -5.7970   -5.3450   -1.0470 hc        1 MOL      0.070185
     31 H11        -5.2010   -3.8650   -1.8010 hc        1 MOL      0.070185
     32 H12        -7.0690   -5.0480   -3.0880 hc        1 MOL      0.029930
     33 H13        -7.6860   -3.4540   -2.5880 hc        1 MOL      0.029930
     34 H14        -8.6700   -4.8130   -0.5970 hc        1 MOL      0.025782
     35 H15        -8.3870   -6.2150   -1.6590 hc        1 MOL      0.025782
     36 H16        -9.4840   -4.7440   -3.5370 hx        1 MOL      0.037326
     37 H17       -10.0370   -3.7480   -2.2390 hx        1 MOL      0.037326
     38 H18       -11.6670   -5.2340   -1.9710 hn        1 MOL      0.313752
     39 H19       -11.1770   -6.1950   -3.2510 hn        1 MOL      0.313752
     40 H20       -10.7400   -6.4610   -1.7570 hn        1 MOL      0.313752
     41 N4         -3.7670   -2.9100    0.7780 n         1 MOL     -0.265790
     42 C13        -3.6820   -1.6140    0.1040 c3        1 MOL     -0.009660
     43 C14        -3.8170   -0.4450    1.0360 c         1 MOL      0.280459
     44 O6         -3.4470   -0.5400    2.2240 o         1 MOL     -0.449360
     45 C15        -2.4930   -1.6430   -0.8500 c3        1 MOL     -0.283560
     46 C16        -1.0650   -1.8750   -0.2200 c         1 MOL      0.627528
     47 O7         -0.6410   -1.1480    0.7550 o         1 MOL     -0.635186
     48 O8         -0.3470   -2.6660   -0.8250 o         1 MOL     -0.635186
     49 H21        -3.1110   -3.0670    1.5250 hn        1 MOL      0.318290
     50 H22        -4.5010   -1.4570   -0.6080 h1        1 MOL      0.064860
     51 H23        -2.4120   -0.7040   -1.3950 hc        1 MOL      0.081028
     52 H24        -2.6900   -2.5000   -1.4950 hc        1 MOL      0.081028
     53 N5         -4.0220    0.7020    0.3990 n         1 MOL      0.046000
     54 C17        -3.9980    2.0140    1.0210 c3        1 MOL     -0.320013
     55 C18        -2.6310    2.6070    1.3540 c         1 MOL      0.579446
     56 O9         -1.5550    1.9700    1.1880 o         1 MOL     -0.610019
     57 H25        -4.4180    0.6300   -0.5260 hn        1 MOL      0.168609
     58 H26        -4.4490    1.8290    2.0000 h1        1 MOL      0.133092
     59 H27        -4.4850    2.7400    0.3700 h1        1 MOL      0.133092
     60 N6         -2.6860    3.7890    1.9000 n         1 MOL     -0.454897
     61 C19        -1.4390    4.5520    2.1990 c3        1 MOL      0.243172
     62 C20        -1.7280    6.0540    1.9130 c         1 MOL      0.359422
     63 O10        -2.9020    6.4290    1.6110 o         1 MOL     -0.520700
     64 C21        -1.0950    4.2820    3.6390 c3        1 MOL     -0.067809
     65 C22         0.0240    3.4330    3.9970 c         1 MOL      0.738567
     66 O11         0.7360    2.9850    3.0670 o         1 MOL     -0.715063
     67 O12         0.3420    3.2090    5.1670 o         1 MOL     -0.715063
     68 H28        -3.5540    4.2730    2.0810 hn        1 MOL      0.293147
     69 H29        -0.6180    4.1990    1.5870 h1        1 MOL      0.082839
     70 H30        -1.9490    3.8660    4.1740 hc        1 MOL      0.012089
     71 H31        -1.0070    5.2230    4.1980 hc        1 MOL      0.012089
     72 N7         -0.7160    6.9200    2.0140 n         1 MOL     -0.378479
     73 C23         0.7400    6.6820    2.0450 c3        1 MOL     -0.044063
     74 C24         1.3070    6.3550    0.6800 c         1 MOL      0.549451
     75 O13         0.8370    6.7860   -0.3950 o         1 MOL     -0.495503
     76 H32        -1.0680    7.8740    2.0510 hn        1 MOL      0.304920
     77 H33         0.9890    5.8260    2.6730 h1        1 MOL      0.070178
     78 H34         1.1880    7.6190    2.3780 h1        1 MOL      0.070178
     79 N8          2.4540    5.6690    0.7130 n         1 MOL     -0.574521
     80 C25         2.8440    4.8570   -0.4220 c3        1 MOL      0.175170
     81 C26         1.8360    3.7380   -0.7510 c         1 MOL      0.638527
     82 O14         1.4110    3.0740    0.2040 o         1 MOL     -0.610469
     83 C27         4.2700    4.2800   -0.2370 c3        1 MOL      0.135969
     84 C28         4.6610    3.2320   -1.2600 c3        1 MOL     -0.090217
     85 O15         4.4660    3.6970    1.0280 oh        1 MOL     -0.659082
     86 H35         2.8940    5.5000    1.6040 hn        1 MOL      0.363777
     87 H36         2.8120    5.5080   -1.2950 h1        1 MOL      0.022816
     88 H37         4.9650    5.1130   -0.3050 h1        1 MOL      0.037900
     89 H38         5.4140    3.6690    1.1000 ho        1 MOL      0.453005
     90 H39         4.4560    3.6940   -2.2280 hc        1 MOL      0.021286
     91 H40         5.7120    2.9360   -1.2450 hc        1 MOL      0.021286
     92 H41         4.0100    2.3720   -1.1490 hc        1 MOL      0.021286
     93 N9          1.2260    3.7410   -1.9640 n         1 MOL     -0.582509
     94 C29         0.2080    2.7960   -2.4290 c3        1 MOL      0.023425
     95 C30         0.6020    1.3970   -2.1040 c         1 MOL      0.379543
     96 O16         0.1870    0.9660   -1.0710 o         1 MOL     -0.328515
     97 C31        -1.1990    3.3060   -1.9290 c3        1 MOL      0.159757
     98 C32        -1.4980    4.7200   -2.4620 c3        1 MOL      0.205883
     99 C33        -2.2960    2.3910   -2.5400 c3        1 MOL     -0.506259
    100 C34        -2.8310    5.2420   -1.9380 c3        1 MOL     -0.194277
    101 H42         1.3080    4.5710   -2.5330 hn        1 MOL      0.305403
    102 H43         0.1370    2.9340   -3.5160 h1        1 MOL      0.036857
    103 H44        -1.1720    3.2930   -0.8430 hc        1 MOL      0.009872
    104 H45        -1.5310    4.7570   -3.5490 hc        1 MOL     -0.047738
    105 H46        -0.7200    5.4270   -2.1900 hc        1 MOL     -0.047738
    106 H47        -2.2470    1.4730   -1.9590 hc        1 MOL      0.128006
    107 H48        -3.2510    2.8840   -2.3620 hc        1 MOL      0.128006
    108 H49        -2.2010    2.3480   -3.6200 hc        1 MOL      0.128006
    109 H50        -2.6920    6.3250   -1.9890 hc        1 MOL      0.046782
    110 H51        -3.6360    4.8990   -2.5850 hc        1 MOL      0.046782
    111 H52        -2.9830    4.9830   -0.8930 hc        1 MOL      0.046782
    112 N10         1.2190    0.6310   -3.0120 n         1 MOL     -0.285481
    113 C35         1.6060   -0.7720   -3.0000 c3        1 MOL     -0.057798
    114 C36         3.1510   -1.0220   -3.2100 c         1 MOL      0.467081
    115 O17         3.6220   -2.1520   -3.4440 o         1 MOL     -0.558370
    116 C37         0.7980   -1.6900   -3.9540 c3        1 MOL      0.529003
    117 C38         0.8960   -1.2360   -5.4090 c3        1 MOL     -0.200642
    118 O18        -0.4520   -1.6100   -3.4400 oh        1 MOL     -0.645251
    119 H53         1.4130    1.0830   -3.8900 hn        1 MOL      0.223049
    120 H54         1.4320   -1.1400   -1.9830 h1        1 MOL      0.039460
    121 H55         1.2430   -2.6820   -3.9220 h1        1 MOL     -0.029717
    122 H56        -0.4750   -1.8430   -2.5170 ho        1 MOL      0.336952
    123 H57         0.7510   -0.1590   -5.4460 hc        1 MOL      0.036621
    124 H58         1.9250   -1.3470   -5.7650 hc        1 MOL      0.036621
    125 H59         0.2120   -1.7180   -6.1100 hc        1 MOL      0.036621
    126 N11         3.9680    0.0650   -3.2430 n         1 MOL     -0.227990
    127 C39         5.4170   -0.1230   -3.4680 c3        1 MOL      0.073192
    128 C40         6.0370   -0.4600   -2.1380 c         1 MOL      0.307409
    129 O19         6.3700    0.4150   -1.3740 o         1 MOL     -0.469167
    130 C41         6.0050    0.9330   -4.3310 c3        1 MOL      0.258759
    131 C42         7.4470    0.6400   -4.7170 c3        1 MOL     -0.430537
    132 O20         5.2260    0.9520   -5.5580 oh        1 MOL     -0.652216
    133 H60         3.5460    0.9550   -3.0260 hn        1 MOL      0.171724
    134 H61         5.6140   -1.0630   -3.9730 h1        1 MOL      0.070639
    135 H62         6.0440    1.8720   -3.7800 h1        1 MOL      0.039106
    136 H63         5.7280    1.3100   -6.2910 ho        1 MOL      0.419567
    137 H64         7.5110   -0.3990   -5.0510 hc        1 MOL      0.118514
    138 H65         7.8080    1.3840   -5.4250 hc        1 MOL      0.118514
    139 H66         8.1530    0.7490   -3.8880 hc        1 MOL      0.118514
    140 N12         6.1910   -1.7500   -1.8340 n         1 MOL     -0.229050
    141 C43         6.4780   -2.3510   -0.4700 c3        1 MOL     -0.019787
    142 C44         5.4830   -2.0270    0.6210 c         1 MOL      0.608837
    143 O21         5.2160   -0.8500    0.8590 o         1 MOL     -0.520829
    144 C45         7.8650   -1.8790   -0.0260 c3        1 MOL     -0.310353
    145 C46         8.9390   -2.9010   -0.4140 c3        1 MOL      0.050616
    146 C47        10.3140   -2.2270   -0.5450 c3        1 MOL     -0.086267
    147 C48        11.3850   -3.2920   -0.7890 c3        1 MOL      0.025194
    148 N13        11.7460   -4.1760    0.3330 n4        1 MOL     -0.239740
    149 H67         5.9170   -2.3640   -2.5860 hn        1 MOL      0.244586
    150 H68         6.3910   -3.4240   -0.6430 h1        1 MOL      0.051460
    151 H69         7.9590   -1.6760    1.0430 hc        1 MOL      0.140374
    152 H70         8.1510   -0.9440   -0.5090 hc        1 MOL      0.140374
    153 H71         8.6730   -3.3150   -1.3880 hc        1 MOL      0.003828
    154 H72         9.0070   -3.6310    0.3980 hc        1 MOL      0.003828
    155 H73        10.4410   -1.7100    0.4070 hc        1 MOL      0.068354
    156 H74        10.4340   -1.6410   -1.4620 hc        1 MOL      0.068354
    157 H75        12.2920   -2.7700   -1.1180 hx        1 MOL      0.071663
    158 H76        11.1420   -3.9240   -1.6410 hx        1 MOL      0.071663
    159 H77        10.9990   -4.8330    0.4790 hn        1 MOL      0.244134
    160 H78        12.5500   -4.7580    0.1670 hn        1 MOL      0.244134
    161 H79        11.9290   -3.6540    1.1810 hn        1 MOL      0.244134
    162 N14         5.0450   -3.0400    1.3720 n         1 MOL     -0.501517
    163 C49         3.9140   -2.7600    2.3270 c3        1 MOL      0.116327
    164 C50         2.6200   -2.4840    1.6510 c         1 MOL      0.323199
    165 O22         1.9650   -1.4540    1.9030 o         1 MOL     -0.500243
    166 C51         3.8230   -3.8970    3.4300 c3        1 MOL     -0.023812
    167 C52         5.0610   -3.9390    4.3030 c3        1 MOL     -0.262009
    168 C53         5.0930   -5.1980    5.1920 c         1 MOL      0.646324
    169 O23         5.6090   -6.2200    4.6920 o         1 MOL     -0.634852
    170 O24         4.5140   -5.2240    6.3300 o         1 MOL     -0.634852
    171 H80         5.3780   -3.9770    1.2240 hn        1 MOL      0.323667
    172 H81         4.1850   -1.8680    2.8970 h1        1 MOL      0.079539
    173 H82         3.5460   -4.8920    3.0880 hc        1 MOL      0.087340
    174 H83         3.0340   -3.5870    4.1080 hc        1 MOL      0.087340
    175 H84         5.0370   -3.0570    4.9450 hc        1 MOL      0.045098
    176 H85         5.8980   -4.0120    3.6120 hc        1 MOL      0.045098
    177 N15         2.1420   -3.3620    0.7030 n         1 MOL     -0.325454
    178 C54         2.5700   -4.7390    0.2440 c3        1 MOL     -0.111199
    179 H86         2.4810   -5.4420    1.0730 h1        1 MOL      0.063741
    180 H87         1.9310   -5.0640   -0.5770 h1        1 MOL      0.063741
    181 H88         3.6060   -4.7050   -0.0940 h1        1 MOL      0.063741
    182 H89         1.2430   -3.0910    0.3310 hn        1 MOL      0.352586
    183 Ca1         0.7050    0.8570    1.6020 Ca        1 MOL      1.569215
    184 O25         2.0430    0.6350    4.0000 oh        1 MOL     -0.788423
    185 H90         2.9670    0.8400    4.1370 ho        1 MOL      0.390057
    186 H91         1.5680    1.3400    4.4520 ho        1 MOL      0.390057
    187 O26         3.1860    1.0190    0.9830 oh        1 MOL     -0.788423
    188 H92         3.4890    1.9180    0.8620 ho        1 MOL      0.390057
    189 H93         3.9650    0.4860    0.8460 ho        1 MOL      0.390057
    190 O27        -0.9600    0.3400    3.5070 oh        1 MOL     -0.788423
    191 H94        -1.7020    0.0360    2.9830 ho        1 MOL      0.390057
    192 H95        -1.3300    0.4510    4.3850 ho        1 MOL      0.390057
@<TRIPOS>BOND
     1    1    2 1   
     2    1    4 1   
     3    1    5 1   
     4    1    6 1   
     5    2    3 2   
     6    2    7 1   
     7    7    8 1   
     8    7   15 1   
     9    8    9 1   
    10    8   11 1   
    11    8   16 1   
    12    9   10 2   
    13    9   19 1   
    14   11   12 1   
    15   11   17 1   
    16   11   18 1   
    17   12   13 1   
    18   12   14 1   
    19   19   20 1   
    20   19   28 1   
    21   20   21 1   
    22   20   23 1   
    23   20   29 1   
    24   21   22 2   
    25   21   41 1   
    26   23   24 1   
    27   23   30 1   
    28   23   31 1   
    29   24   25 1   
    30   24   32 1   
    31   24   33 1   
    32   25   26 1   
    33   25   34 1   
    34   25   35 1   
    35   26   27 1   
    36   26   36 1   
    37   26   37 1   
    38   27   38 1   
    39   27   39 1   
    40   27   40 1   
    41   41   42 1   
    42   41   49 1   
    43   42   43 1   
    44   42   45 1   
    45   42   50 1   
    46   43   44 2   
    47   43   53 1   
    48   45   46 1   
    49   45   51 1   
    50   45   52 1   
    51   46   47 1   
    52   46   48 1   
    53   53   54 1   
    54   53   57 1   
    55   54   55 1   
    56   54   58 1   
    57   54   59 1   
    58   55   56 2   
    59   55   60 1   
    60   60   61 1   
    61   60   68 1   
    62   61   62 1   
    63   61   64 1   
    64   61   69 1   
    65   62   63 2   
    66   62   72 1   
    67   64   65 1   
    68   64   70 1   
    69   64   71 1   
    70   65   66 1   
    71   65   67 1   
    72   72   73 1   
    73   72   76 1   
    74   73   74 1   
    75   73   77 1   
    76   73   78 1   
    77   74   75 2   
    78   74   79 1   
    79   79   80 1   
    80   79   86 1   
    81   80   81 1   
    82   80   83 1   
    83   80   87 1   
    84   81   82 2   
    85   81   93 1   
    86   83   84 1   
    87   83   85 1   
    88   83   88 1   
    89   84   90 1   
    90   84   91 1   
    91   84   92 1   
    92   85   89 1   
    93   93   94 1   
    94   93  101 1   
    95   94   95 1   
    96   94   97 1   
    97   94  102 1   
    98   95   96 2   
    99   95  112 1   
   100   97   98 1   
   101   97   99 1   
   102   97  103 1   
   103   98  100 1   
   104   98  104 1   
   105   98  105 1   
   106   99  106 1   
   107   99  107 1   
   108   99  108 1   
   109  100  109 1   
   110  100  110 1   
   111  100  111 1   
   112  112  113 1   
   113  112  119 1   
   114  113  114 1   
   115  113  116 1   
   116  113  120 1   
   117  114  115 2   
   118  114  126 1   
   119  116  117 1   
   120  116  118 1   
   121  116  121 1   
   122  117  123 1   
   123  117  124 1   
   124  117  125 1   
   125  118  122 1   
   126  126  127 1   
   127  126  133 1   
   128  127  128 1   
   129  127  130 1   
   130  127  134 1   
   131  128  129 2   
   132  128  140 1   
   133  130  131 1   
   134  130  132 1   
   135  130  135 1   
   136  131  137 1   
   137  131  138 1   
   138  131  139 1   
   139  132  136 1   
   140  140  141 1   
   141  140  149 1   
   142  141  142 1   
   143  141  144 1   
   144  141  150 1   
   145  142  143 2   
   146  142  162 1   
   147  144  145 1   
   148  144  151 1   
   149  144  152 1   
   150  145  146 1   
   151  145  153 1   
   152  145  154 1   
   153  146  147 1   
   154  146  155 1   
   155  146  156 1   
   156  147  148 1   
   157  147  157 1   
   158  147  158 1   
   159  148  159 1   
   160  148  160 1   
   161  148  161 1   
   162  162  163 1   
   163  162  171 1   
   164  163  164 1   
   165  163  166 1   
   166  163  172 1   
   167  164  165 2   
   168  164  177 1   
   169  166  167 1   
   170  166  173 1   
   171  166  174 1   
   172  167  168 1   
   173  167  175 1   
   174  167  176 1   
   175  168  169 1   
   176  168  170 1   
   177  177  178 1   
   178  177  182 1   
   179  178  179 1   
   180  178  180 1   
   181  178  181 1   
   182  184  185 1   
   183  184  186 1   
   184  187  188 1   
   185  187  189 1   
   186  190  191 1   
   187  190  192 1   
@<TRIPOS>SUBSTRUCTURE
     1 MOL         1 TEMP              0 ****  ****    0 ROOT
