@<TRIPOS>MOLECULE
MOL
  192   187     1     0     0
SMALL
resp


@<TRIPOS>ATOM
      1 C1         11.9160    5.2890   -2.5060 c3        1 MOL     -0.386207
      2 C2         11.6880    4.0150   -1.6920 c         1 MOL      0.618092
      3 O1         12.2630    2.9440   -1.9690 o         1 MOL     -0.596235
      4 H1         12.9510    5.6110   -2.3920 hc        1 MOL      0.104668
      5 H2         11.7110    5.0900   -3.5590 hc        1 MOL      0.104668
      6 H3         11.2500    6.0730   -2.1470 hc        1 MOL      0.104668
      7 N1         10.9310    4.1190   -0.5740 n         1 MOL     -0.056554
      8 C3         10.4190    3.0560    0.2560 c3        1 MOL     -0.691178
      9 C4          9.1020    2.4700   -0.3210 c         1 MOL      0.640075
     10 O2          8.1880    3.2030   -0.6670 o         1 MOL     -0.714112
     11 C5         10.2190    3.4220    1.7260 c3        1 MOL      0.060664
     12 C6          9.4900    4.7000    2.0880 c         1 MOL      0.860064
     13 O3          9.4890    5.0840    3.2610 o         1 MOL     -0.753733
     14 O4          8.9760    5.4170    1.1390 o         1 MOL     -0.753733
     15 H4         10.6510    5.0290   -0.2140 hn        1 MOL      0.113056
     16 H5         11.0630    2.1850    0.4050 h1        1 MOL      0.225688
     17 H6         11.2180    3.5880    2.1350 hc        1 MOL      0.053486
     18 H7          9.9480    2.5340    2.2950 hc        1 MOL      0.053486
     19 N2          9.0620    1.1400   -0.3840 n         1 MOL     -0.259224
     20 C7          7.8910    0.2910   -0.7220 c3        1 MOL      0.141855
     21 C8          7.0450    0.0260    0.5700 c         1 MOL      0.476708
     22 O5          7.6670   -0.1560    1.6360 o         1 MOL     -0.520152
     23 C9          8.3440   -0.9450   -1.5820 c3        1 MOL     -0.451748
     24 C10         7.2320   -1.9390   -2.0130 c3        1 MOL      0.290825
     25 C11         7.8270   -3.2610   -2.4890 c3        1 MOL     -0.167777
     26 C12         8.4200   -2.9590   -3.8490 c3        1 MOL      0.224542
     27 N3          9.1430   -4.1870   -4.4440 n4        1 MOL     -0.500069
     28 H8          9.9110    0.6770   -0.1070 hn        1 MOL      0.223499
     29 H9          7.2960    0.8980   -1.4080 h1        1 MOL      0.043313
     30 H10         9.0980   -1.4320   -0.9800 hc        1 MOL      0.127808
     31 H11         8.7850   -0.6010   -2.5170 hc        1 MOL      0.127808
     32 H12         6.6370   -1.4450   -2.7830 hc        1 MOL     -0.013246
     33 H13         6.5550   -2.0310   -1.1620 hc        1 MOL     -0.013246
     34 H14         6.9920   -3.9510   -2.5300 hc        1 MOL      0.059949
     35 H15         8.6800   -3.6090   -1.9170 hc        1 MOL      0.059949
     36 H16         9.1070   -2.1290   -3.7390 hx        1 MOL      0.017853
     37 H17         7.6200   -2.5750   -4.4760 hx        1 MOL      0.017853
     38 H18         9.3070   -4.0310   -5.4320 hn        1 MOL      0.351597
     39 H19         9.9950   -4.3540   -3.9390 hn        1 MOL      0.351597
     40 H20         8.5550   -5.0010   -4.3490 hn        1 MOL      0.351597
     41 N4          5.7020    0.1970    0.4840 n         1 MOL     -0.428791
     42 C13         4.8370   -0.0380    1.6900 c3        1 MOL      0.214648
     43 C14         3.4720   -0.2670    1.1050 c         1 MOL      0.384484
     44 O6          3.1470    0.0900   -0.0070 o         1 MOL     -0.476127
     45 C15         4.9340    1.1550    2.6720 c3        1 MOL      0.016303
     46 C16         5.3390    2.4870    2.0250 c         1 MOL      0.662679
     47 O7          6.4800    2.9700    2.1920 o         1 MOL     -0.736838
     48 O8          4.4700    3.2070    1.3980 o         1 MOL     -0.736838
     49 H21         5.3260    0.4970   -0.3980 hn        1 MOL      0.212223
     50 H22         5.2080   -0.9930    2.0630 h1        1 MOL      0.059000
     51 H23         5.5510    0.8440    3.5090 hc        1 MOL      0.008425
     52 H24         3.9380    1.2260    3.1270 hc        1 MOL      0.008425
     53 N5          2.5790   -0.9210    1.7910 n         1 MOL     -0.415663
     54 C17         2.9070   -1.7790    2.9680 c3        1 MOL     -0.036945
     55 C18         3.3620   -3.2070    2.4930 c         1 MOL      0.486227
     56 O9          3.9880   -3.2980    1.4200 o         1 MOL     -0.538584
     57 H25         1.7580   -1.0580    1.2150 hn        1 MOL      0.332649
     58 H26         2.1090   -1.9490    3.7050 h1        1 MOL      0.059575
     59 H27         3.7900   -1.4100    3.4850 h1        1 MOL      0.059575
     60 N6          2.9870   -4.2600    3.2440 n         1 MOL     -0.320603
     61 C19         3.2030   -5.6680    2.8560 c3        1 MOL      0.025593
     62 C20         2.2760   -6.1490    1.7350 c         1 MOL      0.384346
     63 O10         2.7870   -6.7520    0.7910 o         1 MOL     -0.542480
     64 C21         3.1540   -6.6360    4.0420 c3        1 MOL     -0.286118
     65 C22         1.9920   -6.4640    5.0650 c         1 MOL      0.689686
     66 O11         1.0070   -5.8160    4.7260 o         1 MOL     -0.665467
     67 O12         2.0830   -7.1940    6.0870 o         1 MOL     -0.665467
     68 H28         2.4500   -3.9770    4.0630 hn        1 MOL      0.225929
     69 H29         4.2420   -5.8050    2.5850 h1        1 MOL      0.083080
     70 H30         4.0470   -6.5200    4.6640 hc        1 MOL      0.085333
     71 H31         3.0330   -7.6790    3.7640 hc        1 MOL      0.085333
     72 N7          1.0100   -5.8420    1.8780 n         1 MOL     -0.027395
     73 C23        -0.1310   -6.0970    0.9810 c3        1 MOL     -0.098491
     74 C24        -0.0030   -5.3270   -0.3460 c         1 MOL      0.505302
     75 O13        -0.5120   -5.7990   -1.3510 o         1 MOL     -0.527315
     76 H32         0.7350   -5.4360    2.7580 hn        1 MOL      0.149663
     77 H33        -1.0560   -5.7380    1.4320 h1        1 MOL      0.079256
     78 H34        -0.2660   -7.1720    0.8320 h1        1 MOL      0.079256
     79 N8          0.7980   -4.2010   -0.3560 n         1 MOL     -0.233373
     80 C25         1.1540   -3.2520   -1.3780 c3        1 MOL      0.001875
     81 C26         0.5200   -1.9040   -1.1390 c         1 MOL      0.348386
     82 O14         0.5370   -1.3150   -0.0320 o         1 MOL     -0.467019
     83 C27         2.6940   -3.2460   -1.7250 c3        1 MOL      0.228058
     84 C28         3.3350   -4.6140   -1.8950 c3        1 MOL     -0.291156
     85 O15         2.8760   -2.4860   -2.8550 oh        1 MOL     -0.546636
     86 H35         1.0960   -3.9170    0.5720 hn        1 MOL      0.143311
     87 H36         0.6880   -3.5670   -2.3160 h1        1 MOL      0.062365
     88 H37         3.2590   -2.7360   -0.9340 h1        1 MOL      0.024175
     89 H38         3.8060   -2.5000   -3.0860 ho        1 MOL      0.338462
     90 H39         4.2480   -4.6280   -2.4900 hc        1 MOL      0.075317
     91 H40         3.5570   -5.0620   -0.9320 hc        1 MOL      0.075317
     92 H41         2.6070   -5.2200   -2.4290 hc        1 MOL      0.075317
     93 N9         -0.1770   -1.4210   -2.1900 n         1 MOL     -0.148611
     94 C29        -0.7590   -0.0370   -2.4080 c3        1 MOL      0.057350
     95 C30        -2.1680    0.0730   -1.7400 c         1 MOL      0.493039
     96 O16        -2.4130    1.1520   -1.1170 o         1 MOL     -0.491423
     97 C31        -0.7040    0.4500   -3.8700 c3        1 MOL      0.064070
     98 C32         0.7290    0.4100   -4.4930 c3        1 MOL     -0.042782
     99 C33        -1.4820    1.6790   -4.3260 c3        1 MOL     -0.370555
    100 C34         1.7280    1.3200   -3.8350 c3        1 MOL      0.074339
    101 H42        -0.1600   -2.0600   -2.9710 hn        1 MOL      0.196964
    102 H43        -0.1600    0.6040   -1.7590 h1        1 MOL      0.054969
    103 H44        -1.3030   -0.3230   -4.3570 hc        1 MOL     -0.006650
    104 H45         0.6550    0.7550   -5.5200 hc        1 MOL     -0.007024
    105 H46         1.1360   -0.5930   -4.3230 hc        1 MOL     -0.007024
    106 H47        -1.0240    2.5790   -3.9040 hc        1 MOL      0.114351
    107 H48        -1.4080    1.7060   -5.4090 hc        1 MOL      0.114351
    108 H49        -2.5330    1.6470   -4.0570 hc        1 MOL      0.114351
    109 H50         2.1510    0.8180   -2.9640 hc        1 MOL     -0.021549
    110 H51         2.5880    1.4770   -4.4890 hc        1 MOL     -0.021549
    111 H52         1.2310    2.2680   -3.6500 hc        1 MOL     -0.021549
    112 N10        -2.8970   -1.0580   -1.7820 n         1 MOL     -0.369679
    113 C35        -4.0400   -1.2520   -0.9480 c3        1 MOL     -0.004006
    114 C36        -5.1520   -2.0340   -1.6410 c         1 MOL      0.619801
    115 O17        -4.9300   -2.7160   -2.5680 o         1 MOL     -0.533269
    116 C37        -3.8380   -1.9510    0.3740 c3        1 MOL      0.343331
    117 C38        -2.8460   -3.1290    0.3410 c3        1 MOL     -0.362693
    118 O18        -3.2040   -1.0380    1.1920 oh        1 MOL     -0.608165
    119 H53        -2.6240   -1.8410   -2.3580 hn        1 MOL      0.222291
    120 H54        -4.4130   -0.2510   -0.7060 h1        1 MOL      0.057363
    121 H55        -4.7140   -2.2840    0.9300 h1        1 MOL      0.007527
    122 H56        -3.0870   -1.4260    2.0710 ho        1 MOL      0.402797
    123 H57        -2.8740   -3.6590    1.2910 hc        1 MOL      0.077387
    124 H58        -3.0990   -3.7950   -0.4900 hc        1 MOL      0.077387
    125 H59        -1.7840   -2.8930    0.2060 hc        1 MOL      0.077387
    126 N11        -6.3690   -1.8900   -1.1990 n         1 MOL     -0.507850
    127 C39        -7.6420   -2.4100   -1.7240 c3        1 MOL      0.039957
    128 C40        -8.6840   -1.2410   -1.7780 c         1 MOL      0.644410
    129 O19        -8.9700   -0.8640   -2.9130 o         1 MOL     -0.578160
    130 C41        -8.0220   -3.6010   -0.9370 c3        1 MOL      0.151924
    131 C42        -9.4000   -4.2220   -1.2820 c3        1 MOL     -0.373096
    132 O20        -7.9960   -3.2440    0.4070 oh        1 MOL     -0.608966
    133 H60        -6.4900   -1.2850   -0.3980 hn        1 MOL      0.271403
    134 H61        -7.5270   -2.6840   -2.7700 h1        1 MOL      0.099457
    135 H62        -7.2880   -4.4080   -0.9980 h1        1 MOL      0.081979
    136 H63        -8.2350   -4.0510    0.8640 ho        1 MOL      0.424953
    137 H64        -9.4460   -4.6130   -2.2980 hc        1 MOL      0.099583
    138 H65        -9.8700   -4.9060   -0.5650 hc        1 MOL      0.099583
    139 H66       -10.1650   -3.4620   -1.3910 hc        1 MOL      0.099583
    140 N12        -9.1270   -0.7480   -0.6660 n         1 MOL     -0.502930
    141 C43       -10.0880    0.4030   -0.5350 c3        1 MOL      0.103010
    142 C44        -9.5100    1.3900    0.5490 c         1 MOL      0.437640
    143 O21        -9.1180    0.8940    1.5900 o         1 MOL     -0.459191
    144 C45       -11.4850   -0.1260   -0.1420 c3        1 MOL     -0.079099
    145 C46       -12.7300    0.7860   -0.2670 c3        1 MOL     -0.057856
    146 C47       -14.0440    0.1310    0.0470 c3        1 MOL      0.040739
    147 C48       -15.2080    1.0250   -0.3590 c3        1 MOL      0.202016
    148 N13       -16.5420    0.5360    0.0550 n4        1 MOL     -0.416537
    149 H67        -8.7350   -1.1980    0.1550 hn        1 MOL      0.283194
    150 H68       -10.1480    0.9760   -1.4540 h1        1 MOL      0.049852
    151 H69       -11.4050   -0.3250    0.9230 hc        1 MOL      0.058686
    152 H70       -11.5530   -1.1150   -0.5950 hc        1 MOL      0.058686
    153 H71       -12.7260    1.0450   -1.3200 hc        1 MOL      0.034734
    154 H72       -12.4770    1.5570    0.4490 hc        1 MOL      0.034734
    155 H73       -14.0300   -0.0800    1.1160 hc        1 MOL      0.004283
    156 H74       -14.1260   -0.7940   -0.5070 hc        1 MOL      0.004283
    157 H75       -15.1460    1.0870   -1.4420 hx        1 MOL      0.029140
    158 H76       -15.0120    2.0180    0.0240 hx        1 MOL      0.029140
    159 H77       -16.6630    0.5110    1.0610 hn        1 MOL      0.337006
    160 H78       -17.2350    1.1600   -0.3450 hn        1 MOL      0.337006
    161 H79       -16.7770   -0.3480   -0.3810 hn        1 MOL      0.337006
    162 N14        -9.8220    2.7240    0.4270 n         1 MOL     -0.490889
    163 C49        -9.1960    3.6680    1.2900 c3        1 MOL      0.442951
    164 C50        -7.6700    3.5840    1.3040 c         1 MOL      0.364701
    165 O22        -7.1480    3.4300    2.3690 o         1 MOL     -0.517749
    166 C51        -9.7030    5.0510    0.8710 c3        1 MOL     -0.079621
    167 C52       -11.0130    5.3750    1.5480 c3        1 MOL     -0.202147
    168 C53       -11.2770    6.8830    1.6070 c         1 MOL      0.716524
    169 O23       -11.6630    7.5000    0.5870 o         1 MOL     -0.722393
    170 O24       -11.1300    7.4070    2.7320 o         1 MOL     -0.722393
    171 H80       -10.4550    3.0930   -0.2670 hn        1 MOL      0.247843
    172 H81        -9.4720    3.4200    2.3050 h1        1 MOL     -0.002197
    173 H82        -9.8270    5.1950   -0.1960 hc        1 MOL      0.038509
    174 H83        -8.9380    5.7480    1.2070 hc        1 MOL      0.038509
    175 H84       -10.9080    4.9930    2.5590 hc        1 MOL      0.001501
    176 H85       -11.8550    4.8310    1.1080 hc        1 MOL      0.001501
    177 N15        -6.9290    3.5060    0.1770 n         1 MOL     -0.373872
    178 C54        -7.2340    4.0690   -1.1270 c3        1 MOL     -0.019201
    179 H86        -6.4410    4.7570   -1.4200 h1        1 MOL      0.036537
    180 H87        -7.3090    3.2670   -1.8610 h1        1 MOL      0.036537
    181 H88        -8.1810    4.6070   -1.0790 h1        1 MOL      0.036537
    182 H89        -5.9590    3.3070    0.3830 hn        1 MOL      0.301650
    183 Ca1         6.4320    4.8740    0.4290 Ca        1 MOL      1.785339
    184 O25         3.9660    5.7790   -0.0200 oh        1 MOL     -0.908065
    185 H90         3.4680    4.9710    0.0680 ho        1 MOL      0.447794
    186 H91         3.3200    6.4770    0.0760 ho        1 MOL      0.447794
    187 O26         5.4840    3.2440   -1.7360 oh        1 MOL     -0.908065
    188 H92         6.0210    3.5950   -2.4440 ho        1 MOL      0.447794
    189 H93         5.1500    2.4100   -2.0720 ho        1 MOL      0.447794
    190 O27         6.1680    5.8320    2.9500 oh        1 MOL     -0.908065
    191 H94         6.1600    5.2280    3.6870 ho        1 MOL      0.447794
    192 H95         5.9980    6.6920    3.3390 ho        1 MOL      0.447794
@<TRIPOS>BOND
     1    1    2 1   
     2    1    4 1   
     3    1    5 1   
     4    1    6 1   
     5    2    3 2   
     6    2    7 1   
     7    7    8 1   
     8    7   15 1   
     9    8    9 1   
    10    8   11 1   
    11    8   16 1   
    12    9   10 2   
    13    9   19 1   
    14   11   12 1   
    15   11   17 1   
    16   11   18 1   
    17   12   13 1   
    18   12   14 1   
    19   19   20 1   
    20   19   28 1   
    21   20   21 1   
    22   20   23 1   
    23   20   29 1   
    24   21   22 2   
    25   21   41 1   
    26   23   24 1   
    27   23   30 1   
    28   23   31 1   
    29   24   25 1   
    30   24   32 1   
    31   24   33 1   
    32   25   26 1   
    33   25   34 1   
    34   25   35 1   
    35   26   27 1   
    36   26   36 1   
    37   26   37 1   
    38   27   38 1   
    39   27   39 1   
    40   27   40 1   
    41   41   42 1   
    42   41   49 1   
    43   42   43 1   
    44   42   45 1   
    45   42   50 1   
    46   43   44 2   
    47   43   53 1   
    48   45   46 1   
    49   45   51 1   
    50   45   52 1   
    51   46   47 1   
    52   46   48 1   
    53   53   54 1   
    54   53   57 1   
    55   54   55 1   
    56   54   58 1   
    57   54   59 1   
    58   55   56 2   
    59   55   60 1   
    60   60   61 1   
    61   60   68 1   
    62   61   62 1   
    63   61   64 1   
    64   61   69 1   
    65   62   63 2   
    66   62   72 1   
    67   64   65 1   
    68   64   70 1   
    69   64   71 1   
    70   65   66 1   
    71   65   67 1   
    72   72   73 1   
    73   72   76 1   
    74   73   74 1   
    75   73   77 1   
    76   73   78 1   
    77   74   75 2   
    78   74   79 1   
    79   79   80 1   
    80   79   86 1   
    81   80   81 1   
    82   80   83 1   
    83   80   87 1   
    84   81   82 2   
    85   81   93 1   
    86   83   84 1   
    87   83   85 1   
    88   83   88 1   
    89   84   90 1   
    90   84   91 1   
    91   84   92 1   
    92   85   89 1   
    93   93   94 1   
    94   93  101 1   
    95   94   95 1   
    96   94   97 1   
    97   94  102 1   
    98   95   96 2   
    99   95  112 1   
   100   97   98 1   
   101   97   99 1   
   102   97  103 1   
   103   98  100 1   
   104   98  104 1   
   105   98  105 1   
   106   99  106 1   
   107   99  107 1   
   108   99  108 1   
   109  100  109 1   
   110  100  110 1   
   111  100  111 1   
   112  112  113 1   
   113  112  119 1   
   114  113  114 1   
   115  113  116 1   
   116  113  120 1   
   117  114  115 2   
   118  114  126 1   
   119  116  117 1   
   120  116  118 1   
   121  116  121 1   
   122  117  123 1   
   123  117  124 1   
   124  117  125 1   
   125  118  122 1   
   126  126  127 1   
   127  126  133 1   
   128  127  128 1   
   129  127  130 1   
   130  127  134 1   
   131  128  129 2   
   132  128  140 1   
   133  130  131 1   
   134  130  132 1   
   135  130  135 1   
   136  131  137 1   
   137  131  138 1   
   138  131  139 1   
   139  132  136 1   
   140  140  141 1   
   141  140  149 1   
   142  141  142 1   
   143  141  144 1   
   144  141  150 1   
   145  142  143 2   
   146  142  162 1   
   147  144  145 1   
   148  144  151 1   
   149  144  152 1   
   150  145  146 1   
   151  145  153 1   
   152  145  154 1   
   153  146  147 1   
   154  146  155 1   
   155  146  156 1   
   156  147  148 1   
   157  147  157 1   
   158  147  158 1   
   159  148  159 1   
   160  148  160 1   
   161  148  161 1   
   162  162  163 1   
   163  162  171 1   
   164  163  164 1   
   165  163  166 1   
   166  163  172 1   
   167  164  165 2   
   168  164  177 1   
   169  166  167 1   
   170  166  173 1   
   171  166  174 1   
   172  167  168 1   
   173  167  175 1   
   174  167  176 1   
   175  168  169 1   
   176  168  170 1   
   177  177  178 1   
   178  177  182 1   
   179  178  179 1   
   180  178  180 1   
   181  178  181 1   
   182  184  185 1   
   183  184  186 1   
   184  187  188 1   
   185  187  189 1   
   186  190  191 1   
   187  190  192 1   
@<TRIPOS>SUBSTRUCTURE
     1 MOL         1 TEMP              0 ****  ****    0 ROOT
