@<TRIPOS>MOLECULE
MOL
  195   189     1     0     0
SMALL
resp


@<TRIPOS>ATOM
      1 C1          6.5960    2.4310    4.9550 c3        1 MOL     -0.077577
      2 C2          5.8050    1.8110    3.7880 c         1 MOL      0.814498
      3 O1          5.2210    2.5630    2.9950 o         1 MOL     -0.619573
      4 H1          6.4370    1.8390    5.8560 hc        1 MOL      0.015161
      5 H2          7.6580    2.4420    4.7110 hc        1 MOL      0.015161
      6 H3          6.2520    3.4510    5.1260 hc        1 MOL      0.015161
      7 N1          5.9740    0.5010    3.3790 n         1 MOL     -0.778476
      8 C3          5.3790   -0.0730    2.1570 c3        1 MOL      0.511336
      9 C4          3.8470    0.0280    1.8630 c         1 MOL     -0.073585
     10 O2          3.3670   -0.3690    0.7710 o         1 MOL     -0.171654
     11 C5          5.7810   -1.5510    2.1240 c3        1 MOL     -0.083066
     12 C6          7.2560   -1.8380    2.2700 c         1 MOL      0.664542
     13 O3          7.8480   -1.4520    3.3240 o         1 MOL     -0.675861
     14 O4          7.7690   -2.6280    1.4660 o         1 MOL     -0.675861
     15 H4          6.7740    0.0360    3.7750 hn        1 MOL      0.324102
     16 H5          5.9440    0.3690    1.3400 h1        1 MOL      0.019309
     17 H6          5.3930   -1.9420    1.1830 hc        1 MOL     -0.038243
     18 H7          5.1900   -1.9590    2.9470 hc        1 MOL     -0.038243
     19 N2          3.0100    0.4510    2.8120 n         1 MOL     -0.156451
     20 C7          1.5340    0.3680    2.7020 c3        1 MOL      0.123471
     21 C8          0.8970    1.7700    2.6030 c         1 MOL      0.424131
     22 O5          1.2640    2.6900    3.3670 o         1 MOL     -0.517244
     23 C9          1.1230   -0.3790    3.9530 c3        1 MOL     -0.484626
     24 C10         1.7000   -1.8250    3.9970 c3        1 MOL      0.155121
     25 C11         0.8240   -2.6140    4.9770 c3        1 MOL     -0.250384
     26 C12         1.5540   -3.9590    5.0200 c3        1 MOL      0.043448
     27 N3          0.8310   -4.8580    5.9040 n4        1 MOL     -0.222416
     28 H8          3.4350    0.7490    3.6750 hn        1 MOL      0.171598
     29 H9          1.2640   -0.1650    1.7900 h1        1 MOL      0.130156
     30 H10         0.0360   -0.3310    4.0400 hc        1 MOL      0.145084
     31 H11         1.4890    0.1070    4.8510 hc        1 MOL      0.145084
     32 H12         2.7200   -1.9210    4.3680 hc        1 MOL      0.040716
     33 H13         1.7880   -2.2860    3.0170 hc        1 MOL      0.040716
     34 H14        -0.2260   -2.8070    4.7730 hc        1 MOL      0.114268
     35 H15         1.0750   -2.0370    5.8640 hc        1 MOL      0.114268
     36 H16         2.5720   -3.6800    5.3240 hx        1 MOL      0.074038
     37 H17         1.5110   -4.4450    4.0420 hx        1 MOL      0.074038
     38 H18        -0.1720   -4.7520    5.9850 hn        1 MOL      0.274432
     39 H19         0.9780   -5.7900    5.5180 hn        1 MOL      0.274432
     40 H20         1.1510   -4.9350    6.8630 hn        1 MOL      0.274432
     41 N4         -0.1350    1.9680    1.7850 n         1 MOL     -0.168783
     42 C13        -1.0760    1.0330    1.0000 c3        1 MOL      0.044404
     43 C14        -1.5380   -0.2240    1.7990 c         1 MOL      0.448008
     44 O6         -0.8240   -1.1970    1.7050 o         1 MOL     -0.563129
     45 C15        -0.6020    0.6670   -0.4030 c3        1 MOL     -0.050564
     46 C16        -0.4110    1.8630   -1.2570 c         1 MOL      0.590016
     47 O7         -0.9440    2.9770   -1.1180 o         1 MOL     -0.675717
     48 O8          0.1360    1.6900   -2.3410 o         1 MOL     -0.675717
     49 H21        -0.3860    2.9440    1.7620 hn        1 MOL      0.118933
     50 H22        -1.9520    1.6490    0.8360 h1        1 MOL     -0.141019
     51 H23        -1.3330   -0.0100   -0.8460 hc        1 MOL      0.080035
     52 H24         0.3410    0.1200   -0.2780 hc        1 MOL      0.080035
     53 N5         -2.6910   -0.1160    2.4030 n         1 MOL     -0.283899
     54 C17        -3.5850    1.0160    2.4670 c3        1 MOL     -0.181738
     55 C18        -4.8120    0.8000    3.3730 c         1 MOL      0.609922
     56 O9         -4.7730   -0.1040    4.1720 o         1 MOL     -0.545743
     57 H25        -3.0960   -0.9440    2.8370 hn        1 MOL      0.257442
     58 H26        -3.9740    1.1450    1.4610 h1        1 MOL      0.153972
     59 H27        -2.9150    1.8000    2.8370 h1        1 MOL      0.153972
     60 N6         -5.8640    1.5980    3.2660 n         1 MOL     -0.458906
     61 C19        -6.1560    2.6950    2.3510 c3        1 MOL      0.129993
     62 C20        -6.8570    2.2320    1.0740 c         1 MOL      0.345137
     63 O10        -7.5350    1.2110    1.1070 o         1 MOL     -0.435109
     64 C21        -6.9550    3.7270    3.0220 c3        1 MOL     -0.194488
     65 C22        -8.2500    3.1260    3.5730 c         1 MOL      0.812349
     66 O11        -8.2560    2.6620    4.6900 o         1 MOL     -0.673491
     67 O12        -9.3230    3.2970    3.0210 o         1 MOL     -0.673491
     68 H28        -6.6750    1.3670    3.8240 hn        1 MOL      0.278669
     69 H29        -5.2000    3.0960    2.0140 h1        1 MOL     -0.033944
     70 H30        -7.2630    4.4510    2.2640 hc        1 MOL      0.014011
     71 H31        -6.3620    4.1580    3.8290 hc        1 MOL      0.014011
     72 N7         -6.5670    2.8160   -0.0960 n         1 MOL     -0.091960
     73 C23        -7.2530    2.5710   -1.3600 c3        1 MOL     -0.366326
     74 C24        -6.8250    1.2610   -2.0590 c         1 MOL      0.579955
     75 O13        -7.4290    0.8290   -3.0870 o         1 MOL     -0.535727
     76 H32        -5.7870    3.4560   -0.1010 hn        1 MOL      0.124028
     77 H33        -7.2410    3.4490   -2.0140 h1        1 MOL      0.165844
     78 H34        -8.2900    2.4020   -1.0730 h1        1 MOL      0.165844
     79 N8         -5.7990    0.5230   -1.4760 n         1 MOL     -0.357999
     80 C25        -5.1530   -0.7000   -2.0750 c3        1 MOL     -0.018564
     81 C26        -4.9530   -1.7160   -0.9880 c         1 MOL      0.653394
     82 O14        -4.6680   -1.3700    0.1190 o         1 MOL     -0.487227
     83 C27        -3.7770   -0.2640   -2.6450 c3        1 MOL      0.270150
     84 C28        -3.9990    0.4290   -3.9420 c3        1 MOL     -0.290141
     85 O15        -3.0360   -1.4040   -3.0110 oh        1 MOL     -0.578669
     86 H35        -5.3500    0.8400   -0.6360 hn        1 MOL      0.129624
     87 H36        -5.8170   -1.0190   -2.8750 h1        1 MOL      0.104829
     88 H37        -3.3190    0.4640   -1.9770 h1        1 MOL      0.048732
     89 H38        -2.0920   -1.2400   -3.0150 ho        1 MOL      0.434275
     90 H39        -4.2500   -0.3080   -4.7080 hc        1 MOL      0.078313
     91 H40        -4.7390    1.2330   -3.8770 hc        1 MOL      0.078313
     92 H41        -3.0530    0.8250   -4.2880 hc        1 MOL      0.078313
     93 N9         -5.0410   -3.0310   -1.3280 n         1 MOL     -0.607173
     94 C29        -4.8660   -4.1320   -0.3920 c3        1 MOL     -0.004768
     95 C30        -3.4850   -4.7130   -0.3200 c         1 MOL      0.369832
     96 O16        -3.2620   -5.6040    0.5490 o         1 MOL     -0.549630
     97 C31        -5.9640   -5.1800   -0.4890 c3        1 MOL      0.007630
     98 C32        -6.2030   -5.6710   -1.9510 c3        1 MOL      0.202472
     99 C33        -7.3110   -4.6610    0.0420 c3        1 MOL     -0.224690
    100 C34        -4.9120   -6.1720   -2.5750 c3        1 MOL     -0.352268
    101 H42        -5.1740   -3.1620   -2.3200 hn        1 MOL      0.354464
    102 H43        -4.9940   -3.6780    0.5880 h1        1 MOL      0.156919
    103 H44        -5.7620   -6.1140    0.0320 hc        1 MOL      0.063866
    104 H45        -6.6030   -4.8720   -2.5780 hc        1 MOL     -0.040834
    105 H46        -7.0390   -6.3620   -1.9700 hc        1 MOL     -0.040834
    106 H47        -8.0970   -5.3840   -0.1450 hc        1 MOL      0.064122
    107 H48        -7.2550   -4.6190    1.1250 hc        1 MOL      0.064122
    108 H49        -7.6880   -3.6780   -0.2660 hc        1 MOL      0.064122
    109 H50        -5.0600   -6.8300   -3.4210 hc        1 MOL      0.091836
    110 H51        -4.2890   -5.3290   -2.8690 hc        1 MOL      0.091836
    111 H52        -4.3850   -6.8310   -1.8940 hc        1 MOL      0.091836
    112 N10        -2.5100   -4.2310   -1.1200 n         1 MOL     -0.107710
    113 C35        -1.1520   -4.7960   -1.3630 c3        1 MOL     -0.083248
    114 C36        -0.1720   -3.6380   -1.3710 c         1 MOL      0.622505
    115 O17        -0.4340   -2.5250   -1.7450 o         1 MOL     -0.546935
    116 C37        -0.9890   -5.4720   -2.7290 c3        1 MOL      0.399062
    117 C38        -1.4980   -4.6940   -4.0090 c3        1 MOL     -0.193003
    118 O18        -1.7380   -6.6520   -2.6560 oh        1 MOL     -0.638428
    119 H53        -2.7590   -3.4200   -1.6670 hn        1 MOL      0.068859
    120 H54        -0.9010   -5.5090   -0.5770 h1        1 MOL      0.065282
    121 H55         0.0760   -5.7000   -2.8550 h1        1 MOL     -0.028198
    122 H56        -1.3020   -7.2890   -2.0890 ho        1 MOL      0.389788
    123 H57        -1.4550   -5.3880   -4.8490 hc        1 MOL      0.058277
    124 H58        -2.4940   -4.2550   -3.9390 hc        1 MOL      0.058277
    125 H59        -0.8150   -3.8870   -4.2770 hc        1 MOL      0.058277
    126 N11         1.0610   -4.0420   -0.9600 n         1 MOL     -0.554864
    127 C39         2.1380   -3.1910   -0.6060 c3        1 MOL      0.006210
    128 C40         2.7460   -2.6210   -1.8630 c         1 MOL      0.522656
    129 O19         2.9170   -3.3250   -2.8720 o         1 MOL     -0.567491
    130 C41         3.1560   -4.0260    0.2710 c3        1 MOL      0.405450
    131 C42         4.0660   -4.9980   -0.4880 c3        1 MOL     -0.680017
    132 O20         2.4410   -4.8340    1.2450 oh        1 MOL     -0.599681
    133 H60         1.1800   -5.0150   -0.7160 hn        1 MOL      0.291620
    134 H61         1.6960   -2.3850   -0.0150 h1        1 MOL      0.154757
    135 H62         3.7650   -3.3320    0.8430 h1        1 MOL     -0.013795
    136 H63         3.1550   -5.0810    1.8350 ho        1 MOL      0.355262
    137 H64         4.6270   -4.4650   -1.2570 hc        1 MOL      0.179054
    138 H65         4.7100   -5.4660    0.2600 hc        1 MOL      0.179054
    139 H66         3.4730   -5.7910   -0.9370 hc        1 MOL      0.179054
    140 N12         3.3220   -1.4430   -1.6950 n         1 MOL     -0.054199
    141 C43         3.9040   -0.6460   -2.8090 c3        1 MOL     -0.282463
    142 C44         3.8210    0.8550   -2.7460 c         1 MOL      0.539535
    143 O21         3.8760    1.5180   -3.7770 o         1 MOL     -0.560474
    144 C45         5.3220   -1.2040   -3.1130 c3        1 MOL     -0.118296
    145 C46         6.3670   -0.8290   -2.0750 c3        1 MOL     -0.071260
    146 C47         7.5590   -1.7640   -2.3130 c3        1 MOL     -0.124452
    147 C48         7.2810   -3.2090   -1.8910 c3        1 MOL      0.152171
    148 N13         8.3710   -4.1120   -2.3860 n4        1 MOL     -0.355963
    149 H67         3.0650   -0.9100   -0.8670 hn        1 MOL     -0.083422
    150 H68         3.2660   -0.9050   -3.6580 h1        1 MOL      0.157428
    151 H69         5.5920   -0.8020   -4.0890 hc        1 MOL      0.067552
    152 H70         5.3170   -2.2690   -3.3320 hc        1 MOL      0.067552
    153 H71         5.9770   -1.1300   -1.1030 hc        1 MOL      0.086315
    154 H72         6.7130    0.2080   -2.0520 hc        1 MOL      0.086315
    155 H73         8.4160   -1.4840   -1.7080 hc        1 MOL      0.049664
    156 H74         7.8620   -1.6980   -3.3570 hc        1 MOL      0.049664
    157 H75         6.3260   -3.5180   -2.3020 hx        1 MOL      0.049470
    158 H76         7.2910   -3.3630   -0.8140 hx        1 MOL      0.049470
    159 H77         9.2960   -3.8700   -2.0580 hn        1 MOL      0.307976
    160 H78         8.2390   -5.0980   -2.2430 hn        1 MOL      0.307976
    161 H79         8.5330   -4.0690   -3.3880 hn        1 MOL      0.307976
    162 N14         3.5850    1.4520   -1.5730 n         1 MOL      0.155443
    163 C49         3.8770    2.8260   -1.2200 c3        1 MOL     -0.441919
    164 C50         5.3800    3.2390   -1.2010 c         1 MOL      0.399851
    165 O22         6.2360    2.5950   -0.5910 o         1 MOL     -0.478389
    166 C51         3.1750    3.1120    0.1610 c3        1 MOL      1.025635
    167 C52         3.3710    4.6020    0.4690 c3        1 MOL     -0.675363
    168 C53         2.7310    5.4340   -0.5360 c         1 MOL      0.930976
    169 O23         3.3730    6.1830   -1.2910 o         1 MOL     -0.824598
    170 O24         1.5090    5.6280   -0.5690 o         1 MOL     -0.824598
    171 H80         3.4970    0.8690   -0.7550 hn        1 MOL      0.011949
    172 H81         3.4540    3.4880   -1.9810 h1        1 MOL      0.049636
    173 H82         3.6650    2.5240    0.9330 hc        1 MOL     -0.315372
    174 H83         2.1300    2.7980    0.1130 hc        1 MOL     -0.315372
    175 H84         4.4370    4.8260    0.5990 hc        1 MOL      0.185152
    176 H85         2.8560    4.8350    1.3940 hc        1 MOL      0.185152
    177 N15         5.6810    4.3470   -1.9230 n         1 MOL     -0.313143
    178 C54         6.9550    4.9530   -2.1820 c3        1 MOL      0.057149
    179 H86         6.9550    5.3830   -3.1850 h1        1 MOL      0.026746
    180 H87         7.1390    5.7400   -1.4500 h1        1 MOL      0.026746
    181 H88         7.7390    4.1990   -2.1110 h1        1 MOL      0.026746
    182 H89         4.9130    4.8080   -2.3790 hn        1 MOL      0.372866
    183 Ca1        -0.9410    5.5060   -1.3250 Ca        1 MOL      1.609414
    184 O25         0.6870    4.2560   -3.2840 oh        1 MOL     -0.763422
    185 H90         0.5460    3.3960   -2.8950 ho        1 MOL      0.383987
    186 H91         1.2530    4.1010   -4.0370 ho        1 MOL      0.383987
    187 O26        -2.3650    7.5980   -2.6750 oh        1 MOL     -0.763422
    188 H92        -1.9580    8.4510   -2.8300 ho        1 MOL      0.383987
    189 H93        -3.2630    7.8050   -2.4350 ho        1 MOL      0.383987
    190 O27         0.7780    7.4830   -2.3780 oh        1 MOL     -0.763422
    191 H94         1.4970    7.2250   -1.8070 ho        1 MOL      0.383987
    192 H95         0.8300    8.4360   -2.4270 ho        1 MOL      0.383987
    193 O28        -2.8360    4.9050   -3.2570 oh        1 MOL     -0.763422
    194 H96        -3.4440    4.8520   -2.5190 ho        1 MOL      0.383987
    195 H97        -3.3750    4.7770   -4.0310 ho        1 MOL      0.383987
@<TRIPOS>BOND
     1    1    2 1   
     2    1    4 1   
     3    1    5 1   
     4    1    6 1   
     5    2    3 2   
     6    2    7 1   
     7    7    8 1   
     8    7   15 1   
     9    8    9 1   
    10    8   11 1   
    11    8   16 1   
    12    9   10 2   
    13    9   19 1   
    14   11   12 1   
    15   11   17 1   
    16   11   18 1   
    17   12   13 1   
    18   12   14 1   
    19   19   20 1   
    20   19   28 1   
    21   20   21 1   
    22   20   23 1   
    23   20   29 1   
    24   21   22 2   
    25   21   41 1   
    26   23   24 1   
    27   23   30 1   
    28   23   31 1   
    29   24   25 1   
    30   24   32 1   
    31   24   33 1   
    32   25   26 1   
    33   25   34 1   
    34   25   35 1   
    35   26   27 1   
    36   26   36 1   
    37   26   37 1   
    38   27   38 1   
    39   27   39 1   
    40   27   40 1   
    41   41   42 1   
    42   41   49 1   
    43   42   43 1   
    44   42   45 1   
    45   42   50 1   
    46   43   44 2   
    47   43   53 1   
    48   45   46 1   
    49   45   51 1   
    50   45   52 1   
    51   46   47 1   
    52   46   48 1   
    53   53   54 1   
    54   53   57 1   
    55   54   55 1   
    56   54   58 1   
    57   54   59 1   
    58   55   56 2   
    59   55   60 1   
    60   60   61 1   
    61   60   68 1   
    62   61   62 1   
    63   61   64 1   
    64   61   69 1   
    65   62   63 2   
    66   62   72 1   
    67   64   65 1   
    68   64   70 1   
    69   64   71 1   
    70   65   66 1   
    71   65   67 1   
    72   72   73 1   
    73   72   76 1   
    74   73   74 1   
    75   73   77 1   
    76   73   78 1   
    77   74   75 2   
    78   74   79 1   
    79   79   80 1   
    80   79   86 1   
    81   80   81 1   
    82   80   83 1   
    83   80   87 1   
    84   81   82 2   
    85   81   93 1   
    86   83   84 1   
    87   83   85 1   
    88   83   88 1   
    89   84   90 1   
    90   84   91 1   
    91   84   92 1   
    92   85   89 1   
    93   93   94 1   
    94   93  101 1   
    95   94   95 1   
    96   94   97 1   
    97   94  102 1   
    98   95   96 2   
    99   95  112 1   
   100   97   98 1   
   101   97   99 1   
   102   97  103 1   
   103   98  100 1   
   104   98  104 1   
   105   98  105 1   
   106   99  106 1   
   107   99  107 1   
   108   99  108 1   
   109  100  109 1   
   110  100  110 1   
   111  100  111 1   
   112  112  113 1   
   113  112  119 1   
   114  113  114 1   
   115  113  116 1   
   116  113  120 1   
   117  114  115 2   
   118  114  126 1   
   119  116  117 1   
   120  116  118 1   
   121  116  121 1   
   122  117  123 1   
   123  117  124 1   
   124  117  125 1   
   125  118  122 1   
   126  126  127 1   
   127  126  133 1   
   128  127  128 1   
   129  127  130 1   
   130  127  134 1   
   131  128  129 2   
   132  128  140 1   
   133  130  131 1   
   134  130  132 1   
   135  130  135 1   
   136  131  137 1   
   137  131  138 1   
   138  131  139 1   
   139  132  136 1   
   140  140  141 1   
   141  140  149 1   
   142  141  142 1   
   143  141  144 1   
   144  141  150 1   
   145  142  143 2   
   146  142  162 1   
   147  144  145 1   
   148  144  151 1   
   149  144  152 1   
   150  145  146 1   
   151  145  153 1   
   152  145  154 1   
   153  146  147 1   
   154  146  155 1   
   155  146  156 1   
   156  147  148 1   
   157  147  157 1   
   158  147  158 1   
   159  148  159 1   
   160  148  160 1   
   161  148  161 1   
   162  162  163 1   
   163  162  171 1   
   164  163  164 1   
   165  163  166 1   
   166  163  172 1   
   167  164  165 2   
   168  164  177 1   
   169  166  167 1   
   170  166  173 1   
   171  166  174 1   
   172  167  168 1   
   173  167  175 1   
   174  167  176 1   
   175  168  169 1   
   176  168  170 1   
   177  177  178 1   
   178  177  182 1   
   179  178  179 1   
   180  178  180 1   
   181  178  181 1   
   182  184  185 1   
   183  184  186 1   
   184  187  188 1   
   185  187  189 1   
   186  190  191 1   
   187  190  192 1   
   188  193  194 1   
   189  193  195 1   
@<TRIPOS>SUBSTRUCTURE
     1 MOL         1 TEMP              0 ****  ****    0 ROOT
