@<TRIPOS>MOLECULE
MOL
  192   187     1     0     0
SMALL
resp


@<TRIPOS>ATOM
      1 C1          3.3890    4.9170   -3.0250 c3        1 MOL     -0.448419
      2 C2          4.2210    3.8590   -2.2390 c         1 MOL      0.817435
      3 O1          3.8890    3.6040   -1.0490 o         1 MOL     -0.649082
      4 H1          2.4310    4.4830   -3.3140 hc        1 MOL      0.119407
      5 H2          3.2170    5.7880   -2.3930 hc        1 MOL      0.119407
      6 H3          3.9340    5.2170   -3.9200 hc        1 MOL      0.119407
      7 N1          5.3760    3.3540   -2.7490 n         1 MOL     -0.749288
      8 C3          6.3360    2.3410   -2.2690 c3        1 MOL      0.131262
      9 C4          5.6120    1.0220   -1.9330 c         1 MOL      0.396740
     10 O2          5.3680    0.6080   -0.7920 o         1 MOL     -0.622730
     11 C5          7.2620    2.8560   -1.1650 c3        1 MOL     -0.086444
     12 C6          6.6890    3.8000   -0.1060 c         1 MOL      0.836229
     13 O3          6.2040    3.3810    0.9490 o         1 MOL     -0.759741
     14 O4          6.8610    5.0200   -0.1280 o         1 MOL     -0.759741
     15 H4          5.7150    3.7630   -3.6030 hn        1 MOL      0.349039
     16 H5          6.9000    2.1470   -3.1840 h1        1 MOL      0.069490
     17 H6          8.0140    3.4540   -1.7010 hc        1 MOL      0.013807
     18 H7          7.8770    2.0630   -0.7410 hc        1 MOL      0.013807
     19 N2          5.2770    0.3390   -3.0350 n         1 MOL     -0.462485
     20 C7          4.8620   -1.0330   -3.1640 c3        1 MOL      0.042904
     21 C8          5.9880   -1.9830   -2.7240 c         1 MOL      0.438690
     22 O5          6.3610   -2.8240   -3.5050 o         1 MOL     -0.546080
     23 C9          3.4750   -1.2000   -2.6270 c3        1 MOL      0.556715
     24 C10         2.9770   -2.6950   -2.8330 c3        1 MOL     -0.012959
     25 C11         2.5130   -0.1350   -3.2400 c3        1 MOL     -0.528421
     26 C12         2.6710   -3.0510   -4.3260 c3        1 MOL     -0.259385
     27 H8          5.6160    0.7010   -3.9250 hn        1 MOL      0.283818
     28 H9          4.8710   -1.1770   -4.2460 h1        1 MOL      0.028345
     29 H10         3.4250   -1.1200   -1.5450 hc        1 MOL     -0.144203
     30 H11         2.1170   -2.9220   -2.2100 hc        1 MOL      0.031904
     31 H12         3.8070   -3.3630   -2.5990 hc        1 MOL      0.031904
     32 H13         2.6760    0.8990   -2.9250 hc        1 MOL      0.107521
     33 H14         2.5680   -0.2720   -4.3220 hc        1 MOL      0.107521
     34 H15         1.5050   -0.3800   -2.8980 hc        1 MOL      0.107521
     35 H16         1.8590   -2.3710   -4.6030 hc        1 MOL      0.040181
     36 H17         3.5870   -2.8550   -4.8890 hc        1 MOL      0.040181
     37 H18         2.3200   -4.0860   -4.3010 hc        1 MOL      0.040181
     38 N3          6.4210   -1.9160   -1.4710 n         1 MOL     -0.274013
     39 C13         7.4080   -2.7750   -0.7910 c3        1 MOL      0.069095
     40 C14         7.0500   -4.2340   -0.4360 c         1 MOL      0.549724
     41 O6          7.6620   -5.2150   -0.8570 o         1 MOL     -0.598600
     42 C15         7.9520   -2.0730    0.4360 c3        1 MOL     -0.278872
     43 C16         8.3590   -0.6590    0.2150 c         1 MOL      0.866528
     44 O7          8.2080    0.0910    1.1700 o         1 MOL     -0.738523
     45 O8          8.9890   -0.3550   -0.8360 o         1 MOL     -0.738523
     46 H19         5.8690   -1.2770   -0.9160 hn        1 MOL      0.345806
     47 H20         8.3050   -2.8610   -1.4060 h1        1 MOL      0.042919
     48 H21         8.8410   -2.6270    0.7280 hc        1 MOL      0.055700
     49 H22         7.2150   -2.1060    1.2410 hc        1 MOL      0.055700
     50 N4          5.8650   -4.5500    0.1000 n         1 MOL     -0.479138
     51 C17         4.8770   -3.6620    0.7130 c3        1 MOL      0.056758
     52 C18         3.5760   -4.4410    0.9140 c         1 MOL      0.613843
     53 O9          3.4580   -5.5320    0.3950 o         1 MOL     -0.589019
     54 H23         5.6290   -5.5390    0.1430 hn        1 MOL      0.310564
     55 H24         4.7840   -2.7280    0.1530 h1        1 MOL      0.005041
     56 H25         5.2760   -3.4640    1.7100 h1        1 MOL      0.005041
     57 N5          2.6090   -4.0100    1.7040 n         1 MOL     -0.504056
     58 C19         2.4240   -2.6980    2.4190 c3        1 MOL     -0.033067
     59 C20         2.3860   -1.4220    1.5630 c         1 MOL      0.545881
     60 O10         3.4380   -0.8020    1.3360 o         1 MOL     -0.578073
     61 C21         3.3850   -2.6660    3.7030 c3        1 MOL     -0.196323
     62 C22         3.4940   -4.0030    4.4270 c         1 MOL      0.733039
     63 O11         4.5940   -4.2600    4.9630 o         1 MOL     -0.718197
     64 O12         2.4420   -4.6350    4.6810 o         1 MOL     -0.718197
     65 H26         1.8970   -4.6870    1.9380 hn        1 MOL      0.312282
     66 H27         1.4490   -2.7200    2.9130 h1        1 MOL      0.055671
     67 H28         3.0340   -1.8530    4.3370 hc        1 MOL      0.058904
     68 H29         4.3810   -2.3800    3.3670 hc        1 MOL      0.058904
     69 N6          1.2420   -0.8170    1.2310 n         1 MOL     -0.286414
     70 C23        -0.1690   -1.2250    1.4280 c3        1 MOL     -0.000877
     71 C24        -0.6770   -2.1900    0.4030 c         1 MOL      0.661497
     72 O13         0.0160   -2.3740   -0.6080 o         1 MOL     -0.546921
     73 H30         1.3240   -0.1690    0.4550 hn        1 MOL      0.131070
     74 H31        -0.8090   -0.3490    1.2670 h1        1 MOL      0.047795
     75 H32        -0.3650   -1.5660    2.4450 h1        1 MOL      0.047795
     76 N7         -1.8560   -2.7980    0.6040 n         1 MOL     -0.532091
     77 C25        -2.3070   -4.0100   -0.0960 c3        1 MOL      0.034942
     78 C26        -3.0010   -3.7430   -1.4440 c         1 MOL      0.361503
     79 O14        -3.4620   -4.6330   -2.1620 o         1 MOL     -0.532245
     80 C27        -3.1280   -4.9140    0.8500 c3        1 MOL      0.035239
     81 C28        -4.3370   -4.2740    1.5260 c3        1 MOL     -0.260895
     82 C29        -5.4690   -4.0520    0.5610 c         1 MOL      0.592404
     83 N8         -6.2270   -4.9730    0.2120 n         1 MOL     -0.672171
     84 O15        -5.7120   -2.9120    0.1490 o         1 MOL     -0.502347
     85 H33        -2.3290   -2.4660    1.4330 hn        1 MOL      0.282957
     86 H34        -1.4510   -4.6570   -0.3300 h1        1 MOL      0.124282
     87 H35        -2.4380   -5.2160    1.6430 hc        1 MOL      0.020777
     88 H36        -3.3350   -5.8100    0.2600 hc        1 MOL      0.020777
     89 H37        -4.1180   -3.2830    1.9280 hc        1 MOL      0.098731
     90 H38        -4.6830   -4.9500    2.3160 hc        1 MOL      0.098731
     91 H39        -6.0840   -5.9350    0.4980 hn        1 MOL      0.342244
     92 H40        -6.8610   -4.7430   -0.5430 hn        1 MOL      0.342244
     93 N9         -3.2290   -2.4770   -1.7750 n         1 MOL     -0.124927
     94 C30        -3.6800   -2.0440   -3.1450 c3        1 MOL     -0.048635
     95 C31        -5.0960   -1.4850   -3.2440 c         1 MOL      0.310369
     96 O16        -5.4930   -1.0750   -4.2920 o         1 MOL     -0.519976
     97 C32        -2.7250   -1.0190   -3.7290 c3        1 MOL      0.152385
     98 C33        -1.2330   -1.5640   -3.9430 c3        1 MOL     -0.214023
     99 C34        -2.5560    0.2600   -2.8630 c3        1 MOL     -0.214023
    100 H41        -3.0900   -1.8140   -1.0300 hn        1 MOL      0.158033
    101 H42        -3.5570   -2.8310   -3.8910 h1        1 MOL      0.115043
    102 H43        -3.1410   -0.6770   -4.6760 hc        1 MOL      0.008328
    103 H44        -1.1990   -2.4480   -4.5800 hc        1 MOL      0.051712
    104 H45        -0.7270   -0.7610   -4.4860 hc        1 MOL      0.051712
    105 H46        -0.7010   -1.7130   -3.0040 hc        1 MOL      0.051712
    106 H47        -1.9950    1.0250   -3.3960 hc        1 MOL      0.051712
    107 H48        -3.5880    0.4900   -2.5910 hc        1 MOL      0.051712
    108 H49        -1.9640    0.0840   -1.9720 hc        1 MOL      0.051712
    109 N10        -5.9460   -1.3610   -2.1490 n         1 MOL      0.002717
    110 C35        -7.2700   -0.8130   -2.2850 c3        1 MOL      0.049976
    111 C36        -7.5600    0.4330   -1.5410 c         1 MOL      0.453053
    112 O17        -8.6790    0.9150   -1.5440 o         1 MOL     -0.547362
    113 C37        -8.2040   -1.8860   -1.7800 c3        1 MOL     -0.363797
    114 C38        -8.1240   -3.2290   -2.3140 c         1 MOL      0.691696
    115 N11        -7.8920   -3.3780   -3.5950 n         1 MOL     -0.781966
    116 O18        -8.2440   -4.2000   -1.5970 o         1 MOL     -0.577507
    117 H50        -5.7420   -1.7730   -1.2530 hn        1 MOL      0.102213
    118 H51        -7.5240   -0.6890   -3.3380 h1        1 MOL      0.029825
    119 H52        -9.2410   -1.5520   -1.8650 hc        1 MOL      0.114875
    120 H53        -7.9190   -1.9550   -0.7310 hc        1 MOL      0.114875
    121 H54        -7.8390   -2.4880   -4.0790 hn        1 MOL      0.372597
    122 H55        -7.8760   -4.2520   -4.1000 hn        1 MOL      0.372597
    123 N12        -6.6020    0.9070   -0.7610 n         1 MOL     -0.266783
    124 C39        -6.6780    2.0140    0.1670 c3        1 MOL      0.286049
    125 C40        -5.2660    2.6340    0.4880 c         1 MOL      0.235641
    126 O19        -4.2650    1.9820    0.2240 o         1 MOL     -0.375569
    127 C41        -7.3920    1.6280    1.4650 c3        1 MOL     -0.521488
    128 C42        -6.6320    0.4560    2.1780 ca        1 MOL      0.243493
    129 C43        -5.6940    0.7640    3.1580 ca        1 MOL     -0.248886
    130 C44        -7.1340   -0.9230    2.0710 ca        1 MOL     -0.248886
    131 C45        -5.0470   -0.3240    3.8410 ca        1 MOL     -0.250716
    132 C46        -6.5940   -1.9470    2.8910 ca        1 MOL     -0.250716
    133 C47        -5.5310   -1.6150    3.7770 ca        1 MOL      0.379148
    134 O20        -5.1040   -2.6190    4.5470 oh        1 MOL     -0.579958
    135 H56        -5.6960    0.5030   -0.9270 hn        1 MOL      0.120366
    136 H57        -7.2590    2.7770   -0.3360 h1        1 MOL     -0.009871
    137 H58        -8.4410    1.3460    1.3350 hc        1 MOL      0.154807
    138 H59        -7.3090    2.4790    2.1500 hc        1 MOL      0.154807
    139 H60        -5.3920    1.7590    3.4640 ha        1 MOL      0.166635
    140 H61        -7.9710   -1.1840    1.4350 ha        1 MOL      0.166635
    141 H62        -4.3170   -0.0620    4.5940 ha        1 MOL      0.137035
    142 H63        -6.9830   -2.9560    2.8290 ha        1 MOL      0.137035
    143 H64        -4.4170   -2.3470    5.1640 ho        1 MOL      0.425536
    144 N13        -5.3060    3.8730    0.9570 n         1 MOL     -0.395497
    145 C48        -4.2900    4.7060    1.4890 c3        1 MOL     -0.070344
    146 C49        -2.9350    5.1030    0.7250 c         1 MOL      0.229614
    147 O21        -2.4040    6.2010    1.0400 o         1 MOL     -0.488017
    148 C50        -4.0510    4.3360    2.9540 c3        1 MOL      0.331524
    149 C51        -3.0440    3.2160    3.1280 c3        1 MOL     -0.176063
    150 C52        -2.7670    2.9430    4.6180 c         1 MOL      0.718334
    151 O22        -3.6360    3.2120    5.4830 o         1 MOL     -0.728906
    152 O23        -1.6240    2.5520    5.0120 o         1 MOL     -0.728906
    153 H65        -6.2200    4.2950    1.0100 hn        1 MOL      0.314553
    154 H66        -4.8860    5.6060    1.6150 h1        1 MOL      0.053683
    155 H67        -5.0210    4.1290    3.4050 hc        1 MOL     -0.071127
    156 H68        -3.7050    5.2050    3.5080 hc        1 MOL     -0.071127
    157 H69        -2.0290    3.4400    2.7940 hc        1 MOL      0.016449
    158 H70        -3.3810    2.3100    2.6340 hc        1 MOL      0.016449
    159 N14        -2.4570    4.3280   -0.1760 n         1 MOL      0.070978
    160 C53        -1.3280    4.6200   -1.0700 c3        1 MOL     -0.182175
    161 C54        -1.7570    5.6710   -2.1690 c         1 MOL      0.487253
    162 O24        -0.9640    6.5760   -2.5020 o         1 MOL     -0.526288
    163 C55        -0.7700    3.3250   -1.6680 c3        1 MOL      0.116515
    164 C56        -0.4330    2.2330   -0.5800 c3        1 MOL      0.173692
    165 C57         0.6580    2.5450    0.4280 c         1 MOL      0.421659
    166 O25         0.5070    3.3590    1.4040 o         1 MOL     -0.556385
    167 O26         1.7380    1.8850    0.3070 o         1 MOL     -0.556385
    168 H71        -2.8350    3.3940   -0.2670 hn        1 MOL      0.136438
    169 H72        -0.5440    5.0530   -0.4410 h1        1 MOL      0.139863
    170 H73         0.1730    3.4830   -2.1850 hc        1 MOL     -0.049254
    171 H74        -1.5460    2.9920   -2.3500 hc        1 MOL     -0.049254
    172 H75        -0.2570    1.3180   -1.1380 hc        1 MOL     -0.041088
    173 H76        -1.3450    2.0880    0.0010 hc        1 MOL     -0.041088
    174 N15        -2.9940    5.6530   -2.6060 n         1 MOL     -0.249201
    175 C58        -3.6960    6.7790   -3.2990 c3        1 MOL     -0.435648
    176 H77        -4.6930    6.4570   -3.5960 h1        1 MOL      0.158507
    177 H78        -3.7760    7.6300   -2.6220 h1        1 MOL      0.158507
    178 H79        -3.1310    7.0700   -4.1850 h1        1 MOL      0.158507
    179 H80        -3.6620    4.9340   -2.3530 hn        1 MOL      0.230103
    180 Ca1         3.9960    1.8160    1.2430 Ca        1 MOL      1.716541
    181 O27         5.2570    3.0680    3.4440 oh        1 MOL     -0.796185
    182 H81         5.4210    3.9700    3.7040 ho        1 MOL      0.388888
    183 H82         5.9920    2.8470    2.8580 ho        1 MOL      0.388888
    184 O28         3.2620    4.4550    1.8930 oh        1 MOL     -0.796185
    185 H83         3.9130    4.8170    1.2910 ho        1 MOL      0.388888
    186 H84         2.4380    4.8660    1.6360 ho        1 MOL      0.388888
    187 O29         5.9540    0.4980    2.5840 oh        1 MOL     -0.796185
    188 H85         6.7260    0.1690    2.1330 ho        1 MOL      0.388888
    189 H86         5.6770   -0.2170    3.1490 ho        1 MOL      0.388888
    190 O30         3.0550    1.0430    3.8620 oh        1 MOL     -0.796185
    191 H87         3.2100    0.7090    4.7400 ho        1 MOL      0.388888
    192 H88         2.1740    1.4110    3.8920 ho        1 MOL      0.388888
@<TRIPOS>BOND
     1    1    2 1   
     2    1    4 1   
     3    1    5 1   
     4    1    6 1   
     5    2    3 2   
     6    2    7 1   
     7    7    8 1   
     8    7   15 1   
     9    8    9 1   
    10    8   11 1   
    11    8   16 1   
    12    9   10 2   
    13    9   19 1   
    14   11   12 1   
    15   11   17 1   
    16   11   18 1   
    17   12   13 1   
    18   12   14 1   
    19   19   20 1   
    20   19   27 1   
    21   20   21 1   
    22   20   23 1   
    23   20   28 1   
    24   21   22 2   
    25   21   38 1   
    26   23   24 1   
    27   23   25 1   
    28   23   29 1   
    29   24   26 1   
    30   24   30 1   
    31   24   31 1   
    32   25   32 1   
    33   25   33 1   
    34   25   34 1   
    35   26   35 1   
    36   26   36 1   
    37   26   37 1   
    38   38   39 1   
    39   38   46 1   
    40   39   40 1   
    41   39   42 1   
    42   39   47 1   
    43   40   41 2   
    44   40   50 1   
    45   42   43 1   
    46   42   48 1   
    47   42   49 1   
    48   43   44 1   
    49   43   45 1   
    50   50   51 1   
    51   50   54 1   
    52   51   52 1   
    53   51   55 1   
    54   51   56 1   
    55   52   53 2   
    56   52   57 1   
    57   57   58 1   
    58   57   65 1   
    59   58   59 1   
    60   58   61 1   
    61   58   66 1   
    62   59   60 2   
    63   59   69 1   
    64   61   62 1   
    65   61   67 1   
    66   61   68 1   
    67   62   63 1   
    68   62   64 1   
    69   69   70 1   
    70   69   73 1   
    71   70   71 1   
    72   70   74 1   
    73   70   75 1   
    74   71   72 2   
    75   71   76 1   
    76   76   77 1   
    77   76   85 1   
    78   77   78 1   
    79   77   80 1   
    80   77   86 1   
    81   78   79 2   
    82   78   93 1   
    83   80   81 1   
    84   80   87 1   
    85   80   88 1   
    86   81   82 1   
    87   81   89 1   
    88   81   90 1   
    89   82   83 1   
    90   82   84 2   
    91   83   91 1   
    92   83   92 1   
    93   93   94 1   
    94   93  100 1   
    95   94   95 1   
    96   94   97 1   
    97   94  101 1   
    98   95   96 2   
    99   95  109 1   
   100   97   98 1   
   101   97   99 1   
   102   97  102 1   
   103   98  103 1   
   104   98  104 1   
   105   98  105 1   
   106   99  106 1   
   107   99  107 1   
   108   99  108 1   
   109  109  110 1   
   110  109  117 1   
   111  110  111 1   
   112  110  113 1   
   113  110  118 1   
   114  111  112 2   
   115  111  123 1   
   116  113  114 1   
   117  113  119 1   
   118  113  120 1   
   119  114  115 1   
   120  114  116 2   
   121  115  121 1   
   122  115  122 1   
   123  123  124 1   
   124  123  135 1   
   125  124  125 1   
   126  124  127 1   
   127  124  136 1   
   128  125  126 2   
   129  125  144 1   
   130  127  128 1   
   131  127  137 1   
   132  127  138 1   
   133  128  129 ar  
   134  128  130 ar  
   135  129  131 ar  
   136  129  139 1   
   137  130  132 ar  
   138  130  140 1   
   139  131  133 ar  
   140  131  141 1   
   141  132  133 ar  
   142  132  142 1   
   143  133  134 1   
   144  134  143 1   
   145  144  145 1   
   146  144  153 1   
   147  145  146 1   
   148  145  148 1   
   149  145  154 1   
   150  146  147 2   
   151  146  159 1   
   152  148  149 1   
   153  148  155 1   
   154  148  156 1   
   155  149  150 1   
   156  149  157 1   
   157  149  158 1   
   158  150  151 1   
   159  150  152 1   
   160  159  160 1   
   161  159  168 1   
   162  160  161 1   
   163  160  163 1   
   164  160  169 1   
   165  161  162 2   
   166  161  174 1   
   167  163  164 1   
   168  163  170 1   
   169  163  171 1   
   170  164  165 1   
   171  164  172 1   
   172  164  173 1   
   173  165  166 1   
   174  165  167 1   
   175  174  175 1   
   176  174  179 1   
   177  175  176 1   
   178  175  177 1   
   179  175  178 1   
   180  181  182 1   
   181  181  183 1   
   182  184  185 1   
   183  184  186 1   
   184  187  188 1   
   185  187  189 1   
   186  190  191 1   
   187  190  192 1   
@<TRIPOS>SUBSTRUCTURE
     1 MOL         1 TEMP              0 ****  ****    0 ROOT
