@<TRIPOS>MOLECULE
MOL
  194   186     1     0     0
SMALL
resp


@<TRIPOS>ATOM
      1 C1          0.7380    2.0500    2.9050 c3        1 MOL     -0.361831
      2 C2          1.8860    2.0880    1.8650 c         1 MOL      0.695991
      3 O1          1.8090    2.6730    0.8010 o         1 MOL     -0.575307
      4 H1          0.3990    1.0220    3.0330 hc        1 MOL      0.101300
      5 H2          1.0980    2.4340    3.8600 hc        1 MOL      0.101300
      6 H3         -0.0900    2.6650    2.5540 hc        1 MOL      0.101300
      7 N1          3.0540    1.5220    2.2560 n         1 MOL     -0.759948
      8 C3          4.3950    1.5450    1.5630 c3        1 MOL      0.504691
      9 C4          5.1420    0.2100    1.4650 c         1 MOL     -0.194984
     10 O2          6.2770    0.2450    1.0130 o         1 MOL     -0.372173
     11 C5          5.3070    2.5120    2.3750 c3        1 MOL     -0.287203
     12 C6          5.6340    2.0590    3.7670 c         1 MOL      0.807318
     13 O3          6.8050    2.2570    4.1980 o         1 MOL     -0.747009
     14 O4          4.7640    1.5010    4.4950 o         1 MOL     -0.747009
     15 H4          3.1130    1.1280    3.1830 hn        1 MOL      0.369500
     16 H5          4.2820    1.9610    0.5710 h1        1 MOL      0.079132
     17 H6          4.7540    3.4420    2.4720 hc        1 MOL      0.094055
     18 H7          6.2100    2.7130    1.8000 hc        1 MOL      0.094055
     19 N2          4.7100   -0.9340    1.9700 n         1 MOL     -0.087940
     20 C7          5.2330   -2.2940    1.9190 c3        1 MOL      0.244942
     21 C8          5.7220   -2.6960    0.4970 c         1 MOL      0.477769
     22 O5          6.8660   -2.9160    0.2390 o         1 MOL     -0.459756
     23 C9          6.4720   -2.5910    2.9470 c3        1 MOL     -0.488744
     24 C10         7.4790   -1.4620    3.1920 c3        1 MOL      0.231888
     25 C11         8.4540   -1.9840    4.2000 c3        1 MOL     -0.225543
     26 C12         9.3590   -0.7890    4.4930 c3        1 MOL     -0.083227
     27 N3          8.7200    0.2260    5.4010 n4        1 MOL     -0.325421
     28 H8          3.8610   -0.8150    2.4980 hn        1 MOL      0.175282
     29 H9          4.4090   -2.9880    2.0580 h1        1 MOL     -0.047860
     30 H10         7.0780   -3.4270    2.6080 hc        1 MOL      0.113908
     31 H11         6.0630   -2.7800    3.9430 hc        1 MOL      0.113908
     32 H12         6.8740   -0.6480    3.5890 hc        1 MOL      0.060856
     33 H13         8.0750   -1.1840    2.3200 hc        1 MOL      0.060856
     34 H14         9.0100   -2.8210    3.7760 hc        1 MOL      0.088677
     35 H15         7.9820   -2.3000    5.1260 hc        1 MOL      0.088677
     36 H16         9.5530   -0.2410    3.5650 hx        1 MOL      0.115100
     37 H17        10.2630   -1.2310    4.9060 hx        1 MOL      0.115100
     38 H18         8.3240   -0.2980    6.1720 hn        1 MOL      0.312111
     39 H19         9.2910    0.9230    5.8490 hn        1 MOL      0.312111
     40 H20         7.9990    0.6540    4.8390 hn        1 MOL      0.312111
     41 N4          4.7630   -2.5880   -0.4390 n         1 MOL     -0.635846
     42 C13         5.0430   -2.4130   -1.9060 c3        1 MOL      0.454282
     43 C14         5.2670   -0.9680   -2.3110 c         1 MOL      0.386087
     44 O6          5.8040   -0.8000   -3.4330 o         1 MOL     -0.520880
     45 C15         3.9700   -3.0430   -2.7790 c3        1 MOL     -0.393102
     46 C16         3.6880   -4.5600   -2.5030 c         1 MOL      0.784901
     47 O7          4.4390   -5.2780   -1.8190 o         1 MOL     -0.723436
     48 O8          2.7220   -5.1570   -3.0020 o         1 MOL     -0.723436
     49 H21         3.8030   -2.3880   -0.1800 hn        1 MOL      0.304593
     50 H22         5.9910   -2.8880   -2.1890 h1        1 MOL      0.038440
     51 H23         4.2090   -2.9740   -3.8490 hc        1 MOL      0.081278
     52 H24         3.0770   -2.5120   -2.4700 hc        1 MOL      0.081278
     53 N5          4.8820    0.0950   -1.5490 n         1 MOL     -0.198466
     54 C17         4.9770    1.4950   -2.0550 c3        1 MOL     -0.137507
     55 C18         6.4640    1.9570   -2.0610 c         1 MOL      0.642711
     56 O9          7.3710    1.1020   -1.9410 o         1 MOL     -0.490817
     57 H25         4.2190    0.0340   -0.7920 hn        1 MOL      0.188540
     58 H26         4.4590    2.1970   -1.4040 h1        1 MOL      0.070448
     59 H27         4.5930    1.6070   -3.0710 h1        1 MOL      0.070448
     60 N6          6.6890    3.2920   -2.1880 n         1 MOL     -0.786421
     61 C19         5.6550    4.2980   -2.5080 c3        1 MOL      0.556510
     62 C20         5.1430    4.8700   -1.0980 c         1 MOL      0.482512
     63 O10         5.9390    4.9420   -0.2010 o         1 MOL     -0.514087
     64 C21         6.3660    5.3910   -3.2860 c3        1 MOL     -0.374261
     65 C22         5.5270    6.6050   -3.3890 c         1 MOL      0.658757
     66 N7          4.5740    6.6530   -4.3460 n         1 MOL     -0.770934
     67 O11         5.7990    7.5510   -2.6500 o         1 MOL     -0.533333
     68 H28         7.6490    3.5920   -2.0600 hn        1 MOL      0.369659
     69 H29         4.8520    3.8940   -3.1240 h1        1 MOL     -0.021407
     70 H30         6.4340    5.0090   -4.3010 hc        1 MOL      0.103491
     71 H31         7.3030    5.6360   -2.7790 hc        1 MOL      0.103491
     72 H32         4.3460    5.9100   -4.9840 hn        1 MOL      0.359656
     73 H33         4.1810    7.5750   -4.4880 hn        1 MOL      0.359656
     74 N8          3.8430    5.1360   -0.8930 n         1 MOL     -0.542239
     75 C23         2.6580    4.8740   -1.7770 c3        1 MOL     -0.021207
     76 C24         1.4090    5.5060   -1.2660 c         1 MOL      0.727469
     77 O12         1.2980    6.7250   -0.9890 o         1 MOL     -0.556356
     78 H34         3.7330    5.5760    0.0110 hn        1 MOL      0.335642
     79 H35         2.4800    3.7920   -1.8260 h1        1 MOL      0.014753
     80 H36         2.9210    5.2350   -2.7640 h1        1 MOL      0.014753
     81 N9          0.3060    4.7190   -1.3710 n         1 MOL     -0.629355
     82 C25        -0.9820    4.9800   -0.7150 c3        1 MOL      0.161808
     83 C26        -1.7700    3.7290   -0.4490 c         1 MOL      0.663395
     84 O13        -1.4850    2.7020   -1.0640 o         1 MOL     -0.556345
     85 C27        -1.7340    5.9990   -1.5470 c3        1 MOL     -0.146550
     86 C28        -2.6290    6.9730   -0.7290 ca        1 MOL      0.017493
     87 C29        -4.0080    6.9360   -0.9440 ca        1 MOL     -0.108023
     88 C30        -2.0830    7.8670    0.2270 ca        1 MOL     -0.108023
     89 C31        -4.8450    7.8300   -0.2000 ca        1 MOL     -0.333048
     90 C32        -2.9370    8.7530    0.9400 ca        1 MOL     -0.333048
     91 C33        -4.3200    8.7920    0.7080 ca        1 MOL      0.385707
     92 O14        -5.1770    9.6420    1.2360 oh        1 MOL     -0.468446
     93 H37         0.4390    3.7640   -1.6730 hn        1 MOL      0.312323
     94 H38        -0.7600    5.4940    0.2170 h1        1 MOL      0.027669
     95 H39        -2.3220    5.4750   -2.3020 hc        1 MOL      0.079287
     96 H40        -1.0350    6.6180   -2.1020 hc        1 MOL      0.079287
     97 H41        -4.3900    6.1890   -1.6210 ha        1 MOL      0.138664
     98 H42        -1.0230    7.9060    0.4040 ha        1 MOL      0.138664
     99 H43        -5.9050    7.7910   -0.3780 ha        1 MOL      0.148084
    100 H44        -2.5390    9.4300    1.6860 ha        1 MOL      0.148084
    101 H45        -4.6000   10.3530    1.5130 ho        1 MOL      0.361593
    102 N10        -2.6930    3.8480    0.4680 n         1 MOL     -0.512206
    103 C34        -3.8290    2.9250    0.7050 c3        1 MOL     -0.082085
    104 C35        -4.7080    2.7910   -0.6140 c         1 MOL      0.468528
    105 O15        -4.6610    3.7160   -1.4210 o         1 MOL     -0.514746
    106 C36        -4.5660    3.2750    2.0110 c3        1 MOL      0.251472
    107 C37        -5.3280    4.5760    1.7550 c3        1 MOL     -0.012927
    108 C38        -5.5090    2.1230    2.5250 c3        1 MOL     -0.330628
    109 C39        -6.0310    5.0810    3.0060 c3        1 MOL     -0.300608
    110 H46        -2.9060    4.7790    0.7820 hn        1 MOL      0.218957
    111 H47        -3.3280    1.9610    0.8380 h1        1 MOL      0.087093
    112 H48        -3.8370    3.4670    2.8020 hc        1 MOL      0.001084
    113 H49        -6.0180    4.4530    0.9120 hc        1 MOL      0.075925
    114 H50        -4.5920    5.3300    1.4530 hc        1 MOL      0.075925
    115 H51        -5.5980    2.1600    3.6130 hc        1 MOL      0.085658
    116 H52        -6.4810    2.2530    2.0340 hc        1 MOL      0.085658
    117 H53        -5.1520    1.1370    2.2190 hc        1 MOL      0.085658
    118 H54        -6.7840    5.8030    2.7040 hc        1 MOL      0.073524
    119 H55        -6.6690    4.3690    3.5360 hc        1 MOL      0.073524
    120 H56        -5.3020    5.5730    3.6490 hc        1 MOL      0.073524
    121 N11        -5.4120    1.6550   -0.7430 n         1 MOL     -0.125195
    122 C40        -6.1350    1.1010   -1.8530 c3        1 MOL     -0.151289
    123 C41        -6.0210   -0.4180   -1.8640 c         1 MOL      0.584667
    124 O16        -6.0820   -1.0960   -0.8620 o         1 MOL     -0.377681
    125 C42        -7.6430    1.4980   -1.7260 c3        1 MOL      0.028461
    126 O17        -8.0500    1.0110   -0.4720 oh        1 MOL     -0.545548
    127 H57        -5.3670    1.0430    0.0600 hn        1 MOL      0.113919
    128 H58        -5.8070    1.4780   -2.8200 h1        1 MOL      0.094616
    129 H59        -8.2380    0.9930   -2.4940 h1        1 MOL      0.065118
    130 H60        -7.8020    2.5730   -1.8000 h1        1 MOL      0.065118
    131 H61        -8.7140    0.3380   -0.6610 ho        1 MOL      0.422035
    132 N12        -5.7340   -0.9830   -3.0730 n         1 MOL     -0.566343
    133 C43        -5.6180   -2.4340   -3.3330 c3        1 MOL      0.230978
    134 C44        -6.6160   -3.3560   -2.5860 c         1 MOL      0.378732
    135 O18        -6.1540   -4.3540   -1.9990 o         1 MOL     -0.451376
    136 C45        -4.1220   -2.7660   -3.1200 c3        1 MOL     -0.337257
    137 H62        -5.7090   -0.3780   -3.8740 hn        1 MOL      0.307781
    138 H63        -5.7800   -2.5930   -4.3990 h1        1 MOL      0.045726
    139 H64        -3.8820   -3.7360   -3.5750 hc        1 MOL      0.100503
    140 H65        -3.5280   -2.0190   -3.6270 hc        1 MOL      0.100503
    141 H66        -3.8240   -2.7230   -2.0740 hc        1 MOL      0.100503
    142 N13        -7.8400   -2.9780   -2.5380 n         1 MOL     -0.464678
    143 C46        -8.9330   -3.6600   -1.8050 c3        1 MOL      0.315589
    144 C47        -8.5980   -3.8450   -0.2810 c         1 MOL      0.195987
    145 O19        -8.9950   -4.8610    0.3130 o         1 MOL     -0.482236
    146 C48        -9.3860   -5.0080   -2.6020 c3        1 MOL     -0.409698
    147 H67        -8.0280   -2.1200   -3.0250 hn        1 MOL      0.244979
    148 H68        -9.8160   -3.0120   -1.7850 h1        1 MOL      0.010139
    149 H69       -10.2470   -5.4870   -2.1430 hc        1 MOL      0.122753
    150 H70        -9.6680   -4.8000   -3.6430 hc        1 MOL      0.122753
    151 H71        -8.5320   -5.6730   -2.6970 hc        1 MOL      0.122753
    152 N14        -7.7290   -3.0500    0.3090 n         1 MOL      0.071099
    153 C49        -7.3390   -3.0990    1.6810 c3        1 MOL     -0.222720
    154 C50        -8.3930   -2.4970    2.6750 c         1 MOL      0.391393
    155 O20        -8.4490   -3.0160    3.8280 o         1 MOL     -0.500193
    156 C51        -5.9800   -2.4570    1.9100 c3        1 MOL      0.377563
    157 C52        -5.2920   -2.8570    3.2830 c3        1 MOL     -0.323323
    158 C53        -4.6950   -4.2490    3.1600 c         1 MOL      0.735654
    159 O21        -3.4450   -4.3800    3.2310 o         1 MOL     -0.678317
    160 O22        -5.4360   -5.2430    2.9690 o         1 MOL     -0.678317
    161 H72        -7.4370   -2.2710   -0.2620 hn        1 MOL      0.016907
    162 H73        -7.3210   -4.1720    1.9000 h1        1 MOL      0.209353
    163 H74        -6.1930   -1.3830    1.8280 hc        1 MOL     -0.075045
    164 H75        -5.2520   -2.7210    1.1460 hc        1 MOL     -0.075045
    165 H76        -5.9160   -2.7360    4.1560 hc        1 MOL      0.044182
    166 H77        -4.4840   -2.1560    3.4880 hc        1 MOL      0.044182
    167 N15        -9.1700   -1.4670    2.3300 n         1 MOL     -0.150980
    168 C54       -10.1770   -0.8500    3.2740 c3        1 MOL     -0.263634
    169 H78       -10.4940    0.1180    2.8850 h1        1 MOL      0.115708
    170 H79       -11.0430   -1.5060    3.3620 h1        1 MOL      0.115708
    171 H80        -9.7220   -0.7150    4.2550 h1        1 MOL      0.115708
    172 H81        -9.0860   -1.1110    1.3870 hn        1 MOL      0.118596
    173 Ca1         3.1130   -7.2330   -1.0130 Ca        1 MOL      1.765630
    174 O23         2.5970   -8.2860    1.4450 oh        1 MOL     -0.818158
    175 H82         2.0830   -7.9730    2.1920 ho        1 MOL      0.398181
    176 H83         2.9690   -9.1060    1.7460 ho        1 MOL      0.398181
    177 O24         2.9890   -5.3990    0.8440 oh        1 MOL     -0.818158
    178 H84         3.5820   -5.3040    1.5830 ho        1 MOL      0.398181
    179 H85         2.3810   -4.6690    0.9200 ho        1 MOL      0.398181
    180 O25         0.6270   -6.7860   -0.4560 oh        1 MOL     -0.818158
    181 H86         0.3860   -6.6980    0.4710 ho        1 MOL      0.398181
    182 H87        -0.1790   -7.0790   -0.8820 ho        1 MOL      0.398181
    183 O26         5.3840   -7.5390    0.3570 oh        1 MOL     -0.818158
    184 H88         6.1070   -6.9160    0.4920 ho        1 MOL      0.398181
    185 H89         5.4550   -8.1450    1.1000 ho        1 MOL      0.398181
    186 O27         4.5880   -8.5890   -2.9550 oh        1 MOL     -0.818158
    187 H90         5.4250   -8.2200   -3.2500 ho        1 MOL      0.398181
    188 H91         4.2300   -9.0140   -3.7240 ho        1 MOL      0.398181
    189 O28         2.3760   -9.7660   -1.1930 oh        1 MOL     -0.818158
    190 H92         2.0380  -10.1730   -1.9940 ho        1 MOL      0.398181
    191 H93         1.8720  -10.1880   -0.4900 ho        1 MOL      0.398181
    192 O29         1.4560   -7.2860   -3.1500 oh        1 MOL     -0.818158
    193 H94         0.6830   -7.4480   -3.6910 ho        1 MOL      0.398181
    194 H95         1.4720   -6.3450   -3.0200 ho        1 MOL      0.398181
@<TRIPOS>BOND
     1    1    2 1   
     2    1    4 1   
     3    1    5 1   
     4    1    6 1   
     5    2    3 2   
     6    2    7 1   
     7    7    8 1   
     8    7   15 1   
     9    8    9 1   
    10    8   11 1   
    11    8   16 1   
    12    9   10 2   
    13    9   19 1   
    14   11   12 1   
    15   11   17 1   
    16   11   18 1   
    17   12   13 1   
    18   12   14 1   
    19   19   20 1   
    20   19   28 1   
    21   20   21 1   
    22   20   23 1   
    23   20   29 1   
    24   21   22 2   
    25   21   41 1   
    26   23   24 1   
    27   23   30 1   
    28   23   31 1   
    29   24   25 1   
    30   24   32 1   
    31   24   33 1   
    32   25   26 1   
    33   25   34 1   
    34   25   35 1   
    35   26   27 1   
    36   26   36 1   
    37   26   37 1   
    38   27   38 1   
    39   27   39 1   
    40   27   40 1   
    41   41   42 1   
    42   41   49 1   
    43   42   43 1   
    44   42   45 1   
    45   42   50 1   
    46   43   44 2   
    47   43   53 1   
    48   45   46 1   
    49   45   51 1   
    50   45   52 1   
    51   46   47 1   
    52   46   48 1   
    53   53   54 1   
    54   53   57 1   
    55   54   55 1   
    56   54   58 1   
    57   54   59 1   
    58   55   56 2   
    59   55   60 1   
    60   60   61 1   
    61   60   68 1   
    62   61   62 1   
    63   61   64 1   
    64   61   69 1   
    65   62   63 2   
    66   62   74 1   
    67   64   65 1   
    68   64   70 1   
    69   64   71 1   
    70   65   66 1   
    71   65   67 2   
    72   66   72 1   
    73   66   73 1   
    74   74   75 1   
    75   74   78 1   
    76   75   76 1   
    77   75   79 1   
    78   75   80 1   
    79   76   77 2   
    80   76   81 1   
    81   81   82 1   
    82   81   93 1   
    83   82   83 1   
    84   82   85 1   
    85   82   94 1   
    86   83   84 2   
    87   83  102 1   
    88   85   86 1   
    89   85   95 1   
    90   85   96 1   
    91   86   87 ar  
    92   86   88 ar  
    93   87   89 ar  
    94   87   97 1   
    95   88   90 ar  
    96   88   98 1   
    97   89   91 ar  
    98   89   99 1   
    99   90   91 ar  
   100   90  100 1   
   101   91   92 1   
   102   92  101 1   
   103  102  103 1   
   104  102  110 1   
   105  103  104 1   
   106  103  106 1   
   107  103  111 1   
   108  104  105 2   
   109  104  121 1   
   110  106  107 1   
   111  106  108 1   
   112  106  112 1   
   113  107  109 1   
   114  107  113 1   
   115  107  114 1   
   116  108  115 1   
   117  108  116 1   
   118  108  117 1   
   119  109  118 1   
   120  109  119 1   
   121  109  120 1   
   122  121  122 1   
   123  121  127 1   
   124  122  123 1   
   125  122  125 1   
   126  122  128 1   
   127  123  124 2   
   128  123  132 1   
   129  125  126 1   
   130  125  129 1   
   131  125  130 1   
   132  126  131 1   
   133  132  133 1   
   134  132  137 1   
   135  133  134 1   
   136  133  136 1   
   137  133  138 1   
   138  134  135 2   
   139  134  142 1   
   140  136  139 1   
   141  136  140 1   
   142  136  141 1   
   143  142  143 1   
   144  142  147 1   
   145  143  144 1   
   146  143  146 1   
   147  143  148 1   
   148  144  145 2   
   149  144  152 1   
   150  146  149 1   
   151  146  150 1   
   152  146  151 1   
   153  152  153 1   
   154  152  161 1   
   155  153  154 1   
   156  153  156 1   
   157  153  162 1   
   158  154  155 2   
   159  154  167 1   
   160  156  157 1   
   161  156  163 1   
   162  156  164 1   
   163  157  158 1   
   164  157  165 1   
   165  157  166 1   
   166  158  159 1   
   167  158  160 1   
   168  167  168 1   
   169  167  172 1   
   170  168  169 1   
   171  168  170 1   
   172  168  171 1   
   173  174  175 1   
   174  174  176 1   
   175  177  178 1   
   176  177  179 1   
   177  180  181 1   
   178  180  182 1   
   179  183  184 1   
   180  183  185 1   
   181  186  187 1   
   182  186  188 1   
   183  189  190 1   
   184  189  191 1   
   185  192  193 1   
   186  192  194 1   
@<TRIPOS>SUBSTRUCTURE
     1 MOL         1 TEMP              0 ****  ****    0 ROOT
