@<TRIPOS>MOLECULE
MOL
  179   176     1     0     0
SMALL
resp


@<TRIPOS>ATOM
      1 C1          1.8550   -4.1770    6.3110 c3        1 MOL     -0.425627
      2 C2          2.0250   -4.0810    4.8110 c         1 MOL      0.764738
      3 O1          1.1810   -4.5950    4.0630 o         1 MOL     -0.592899
      4 H1          1.2240   -5.0330    6.5500 hc        1 MOL      0.111118
      5 H2          2.8310   -4.3030    6.7810 hc        1 MOL      0.111118
      6 H3          1.3870   -3.2650    6.6830 hc        1 MOL      0.111118
      7 N1          2.9770   -3.3000    4.3390 n         1 MOL     -0.584559
      8 C3          3.1070   -2.9400    2.8910 c3        1 MOL     -0.085406
      9 C4          3.6170   -4.1250    2.0430 c         1 MOL      0.723737
     10 O2          4.6620   -4.6420    2.3060 o         1 MOL     -0.552243
     11 C5          3.8790   -1.6780    2.6870 c3        1 MOL      0.192514
     12 C6          3.7070   -0.9740    1.3520 c         1 MOL      0.502407
     13 O3          3.8800    0.2610    1.1770 o         1 MOL     -0.700396
     14 O4          3.1900   -1.6170    0.3850 o         1 MOL     -0.700396
     15 H4          3.7480   -2.9320    4.8910 hn        1 MOL      0.322393
     16 H5          2.0590   -2.7330    2.6690 h1        1 MOL     -0.045630
     17 H6          4.9540   -1.8430    2.8430 hc        1 MOL     -0.017257
     18 H7          3.6340   -0.9980    3.5010 hc        1 MOL     -0.017257
     19 N2          2.8530   -4.4950    1.0090 n         1 MOL     -0.323411
     20 C7          3.2520   -5.4030   -0.1490 c3        1 MOL     -0.118362
     21 C8          4.4210   -5.0490   -1.0510 c         1 MOL      0.487910
     22 O5          5.0210   -5.9450   -1.6330 o         1 MOL     -0.549313
     23 C9          2.0550   -5.6330   -1.1650 c3        1 MOL      0.055731
     24 C10         1.4590   -4.3390   -1.6710 c3        1 MOL      0.187629
     25 C11        -0.0250   -4.5230   -1.8960 c3        1 MOL     -0.204387
     26 C12        -0.4210   -5.4590   -2.9870 c3        1 MOL      0.008939
     27 N3         -0.0050   -4.9010   -4.3250 n4        1 MOL     -0.233171
     28 H8          2.0830   -3.8840    0.7820 hn        1 MOL      0.083207
     29 H9          3.5830   -6.3800    0.2170 h1        1 MOL      0.123352
     30 H10         1.3840   -6.2750   -0.6030 hc        1 MOL      0.011119
     31 H11         2.4530   -6.2960   -1.9320 hc        1 MOL      0.011119
     32 H12         2.0050   -3.9620   -2.5320 hc        1 MOL     -0.019277
     33 H13         1.5700   -3.5680   -0.9120 hc        1 MOL     -0.019277
     34 H14        -0.5900   -3.6020   -2.0630 hc        1 MOL      0.093377
     35 H15        -0.3560   -4.9940   -0.9770 hc        1 MOL      0.093377
     36 H16        -1.4870   -5.6660   -2.9810 hx        1 MOL      0.087152
     37 H17         0.1210   -6.3740   -2.7640 hx        1 MOL      0.087152
     38 H18        -0.4160   -4.0520   -4.6650 hn        1 MOL      0.268964
     39 H19         0.9880   -4.7470   -4.2480 hn        1 MOL      0.268964
     40 H20        -0.1140   -5.5770   -5.0660 hn        1 MOL      0.268964
     41 N4          4.7060   -3.7690   -1.2390 n         1 MOL     -0.090649
     42 C13         5.7590   -3.2870   -2.1300 c3        1 MOL      0.008041
     43 C14         6.8570   -2.5260   -1.3980 c         1 MOL      0.353526
     44 O6          7.8800   -2.2230   -1.9740 o         1 MOL     -0.524054
     45 C15         5.1420   -2.2960   -3.2470 c3        1 MOL     -0.218487
     46 C16         4.2330   -1.1870   -2.7180 c         1 MOL      0.883724
     47 O7          2.9640   -1.4030   -2.7190 o         1 MOL     -0.850454
     48 O8          4.7420   -0.1030   -2.2990 o         1 MOL     -0.850454
     49 H21         4.0360   -3.0700   -0.9390 hn        1 MOL     -0.018441
     50 H22         6.1780   -4.1670   -2.6110 h1        1 MOL      0.112009
     51 H23         4.4820   -2.9340   -3.8160 hc        1 MOL      0.059624
     52 H24         5.9030   -1.8720   -3.9040 hc        1 MOL      0.059624
     53 N5          6.6150   -2.0790   -0.2020 n         1 MOL     -0.023616
     54 C17         7.5300   -1.3140    0.6520 c3        1 MOL     -0.298131
     55 C18         7.6890    0.1780    0.2390 c         1 MOL      0.572273
     56 O9          8.5020    0.8330    0.8560 o         1 MOL     -0.550229
     57 H25         5.7210   -2.3770    0.1560 hn        1 MOL      0.060006
     58 H26         8.4700   -1.8520    0.6010 h1        1 MOL      0.148904
     59 H27         7.2230   -1.3490    1.7010 h1        1 MOL      0.148904
     60 N6          6.9040    0.7360   -0.6830 n         1 MOL     -0.395918
     61 C19         6.8790    2.1770   -1.1330 c3        1 MOL      0.247778
     62 C20         5.5150    2.8780   -1.0930 c         1 MOL      0.624902
     63 O10         4.4470    2.2380   -0.9810 o         1 MOL     -0.652011
     64 C21         7.3820    2.2520   -2.6090 c3        1 MOL     -0.379508
     65 C22         8.7870    1.6940   -2.9120 c         1 MOL      0.745046
     66 N7          8.7960    0.5540   -3.5410 n         1 MOL     -0.873332
     67 O11         9.7890    2.2960   -2.5910 o         1 MOL     -0.549336
     68 H28         6.2970    0.1470   -1.2230 hn        1 MOL      0.402343
     69 H29         7.5220    2.7560   -0.4720 h1        1 MOL      0.013310
     70 H30         7.4860    3.3350   -2.6380 hc        1 MOL      0.072799
     71 H31         6.5800    1.9470   -3.2700 hc        1 MOL      0.072799
     72 H32         7.9560    0.1340   -3.9220 hn        1 MOL      0.394834
     73 H33         9.6770    0.1190   -3.7710 hn        1 MOL      0.394834
     74 N8          5.5320    4.2220   -1.0970 n         1 MOL     -0.516248
     75 C23         4.3040    5.1420   -1.2460 c3        1 MOL     -0.107723
     76 C24         3.4350    5.1150    0.0320 c         1 MOL      0.683061
     77 O12         4.0060    5.2720    1.0730 o         1 MOL     -0.497646
     78 H34         6.4140    4.7120   -1.1620 hn        1 MOL      0.361213
     79 H35         3.6820    4.7860   -2.0700 h1        1 MOL      0.088942
     80 H36         4.6250    6.1190   -1.5690 h1        1 MOL      0.088942
     81 N9          2.0820    4.9670   -0.1240 n         1 MOL     -0.682468
     82 C25         1.1690    4.6580    0.9740 c3        1 MOL      0.313972
     83 C26         1.1170    3.1810    1.4080 c         1 MOL      0.512185
     84 O13         1.8000    2.4200    0.7200 o         1 MOL     -0.495665
     85 C27        -0.2780    5.1830    0.5910 c3        1 MOL     -0.171861
     86 C28        -0.4250    6.6520    0.3970 ca        1 MOL      0.008682
     87 C29        -1.1080    7.0670   -0.7600 ca        1 MOL     -0.121383
     88 C30         0.0670    7.5990    1.3870 ca        1 MOL     -0.121383
     89 C31        -1.1540    8.4720   -1.0490 ca        1 MOL     -0.248530
     90 C32        -0.0590    8.9910    1.1150 ca        1 MOL     -0.248530
     91 C33        -0.6920    9.3860   -0.0990 ca        1 MOL      0.279770
     92 O14        -0.6150   10.7170   -0.3880 oh        1 MOL     -0.422901
     93 H37         1.6860    4.9560   -1.0490 hn        1 MOL      0.288966
     94 H38         1.4640    5.2840    1.8130 h1        1 MOL      0.061606
     95 H39        -0.9360    5.1310    1.4550 hc        1 MOL      0.053504
     96 H40        -0.7380    4.5450   -0.1770 hc        1 MOL      0.053504
     97 H41        -1.4890    6.4350   -1.5520 ha        1 MOL      0.124814
     98 H42         0.4680    7.2980    2.3430 ha        1 MOL      0.124814
     99 H43        -1.6310    8.8300   -1.9530 ha        1 MOL      0.168042
    100 H44         0.2750    9.7190    1.8330 ha        1 MOL      0.168042
    101 H45        -0.8190   10.8640   -1.3170 ho        1 MOL      0.331086
    102 N10         0.2010    2.7910    2.2790 n         1 MOL     -0.723382
    103 C34        -0.0530    1.3460    2.7260 c3        1 MOL      0.311776
    104 C35        -0.3140    0.3380    1.6480 c         1 MOL      0.059882
    105 O15         0.5540   -0.0300    0.8950 o         1 MOL      0.100469
    106 C36         0.9530    0.8800    3.7320 c3        1 MOL      0.087936
    107 C37         0.5470   -0.5030    4.2850 c3        1 MOL     -0.269701
    108 C38         1.3250    1.8760    4.8640 c3        1 MOL     -0.161960
    109 C39        -0.7300   -0.5860    5.1170 c3        1 MOL     -0.446033
    110 H46        -0.3750    3.4720    2.7590 hn        1 MOL      0.326760
    111 H47        -0.9450    1.4610    3.3400 h1        1 MOL      0.047036
    112 H48         1.8810    0.7270    3.1860 hc        1 MOL      0.036812
    113 H49         1.2540   -0.9090    5.0150 hc        1 MOL      0.170174
    114 H50         0.6360   -1.2890    3.5390 hc        1 MOL      0.170174
    115 H51         1.7740    2.7640    4.4290 hc        1 MOL      0.055627
    116 H52         0.4070    2.1470    5.3990 hc        1 MOL      0.055627
    117 H53         1.9590    1.4610    5.6460 hc        1 MOL      0.055627
    118 H54        -0.6030   -0.2170    6.1350 hc        1 MOL      0.126079
    119 H55        -1.4880   -0.0860    4.5260 hc        1 MOL      0.126079
    120 H56        -1.0590   -1.6310    5.2170 hc        1 MOL      0.126079
    121 N11        -1.5860   -0.1710    1.5500 n         1 MOL     -0.386825
    122 C40        -1.8930   -1.3460    0.7780 c3        1 MOL     -0.034088
    123 C41        -3.3200   -1.5630    0.3320 c         1 MOL      0.553438
    124 O16        -3.6280   -2.3960   -0.5050 o         1 MOL     -0.556013
    125 C42        -1.3100   -2.6470    1.4240 c3        1 MOL      0.008395
    126 O17         0.0700   -2.7060    1.2240 oh        1 MOL     -0.147815
    127 H57        -2.2520    0.1920    2.2210 hn        1 MOL      0.300184
    128 H58        -1.3450   -1.2320   -0.1640 h1        1 MOL      0.084430
    129 H59        -1.8170   -3.5680    1.1460 h1        1 MOL      0.081887
    130 H60        -1.6140   -2.5990    2.4740 h1        1 MOL      0.081887
    131 H61         0.4960   -1.8580    1.0520 ho        1 MOL     -0.066247
    132 N12        -4.2280   -0.7680    0.8550 n         1 MOL     -0.485665
    133 C43        -5.6440   -0.7550    0.4900 c3        1 MOL      0.050563
    134 C44        -5.8090   -0.3740   -1.0050 c         1 MOL      0.704435
    135 O18        -4.9530    0.3480   -1.5280 o         1 MOL     -0.606284
    136 C45        -6.3610    0.1000    1.5170 c3        1 MOL     -0.372787
    137 H62        -3.8400   -0.0650    1.4710 hn        1 MOL      0.261114
    138 H63        -5.9870   -1.7840    0.6020 h1        1 MOL      0.126522
    139 H64        -6.3030   -0.2900    2.5400 hc        1 MOL      0.121200
    140 H65        -6.0100    1.1350    1.5140 hc        1 MOL      0.121200
    141 H66        -7.4110    0.0320    1.2350 hc        1 MOL      0.121200
    142 N13        -6.9260   -0.6310   -1.6490 n         1 MOL     -0.639250
    143 C46        -8.1050   -1.4640   -1.2780 c3        1 MOL      0.320750
    144 C47        -9.4110   -1.1150   -2.1560 c         1 MOL      0.358278
    145 O19        -9.2650   -0.7160   -3.3340 o         1 MOL     -0.503168
    146 C48        -7.7710   -2.9220   -1.3290 c3        1 MOL     -0.216101
    147 H67        -6.9410   -0.3290   -2.6050 hn        1 MOL      0.329603
    148 H68        -8.3940   -1.3060   -0.2340 h1        1 MOL     -0.018377
    149 H69        -7.5130   -3.2230   -2.3450 hc        1 MOL      0.059602
    150 H70        -6.9580   -3.1230   -0.6300 hc        1 MOL      0.059602
    151 H71        -8.6630   -3.4900   -1.0590 hc        1 MOL      0.059602
    152 N14       -10.6630   -1.0690   -1.5780 n         1 MOL     -0.159481
    153 C49       -10.9880   -1.3470   -0.2160 c3        1 MOL     -0.580745
    154 C50       -10.5180   -0.2650    0.7360 c         1 MOL      0.691199
    155 O20       -10.1170   -0.5110    1.8510 o         1 MOL     -0.579384
    156 C51       -12.4890   -1.6520    0.0450 c3        1 MOL      0.234785
    157 C52       -13.4680   -0.5250   -0.1160 c3        1 MOL     -0.230395
    158 C53       -13.4380   -0.0000   -1.5670 c         1 MOL      0.739825
    159 O21       -13.7080   -0.7380   -2.5340 o         1 MOL     -0.690849
    160 O22       -13.0810    1.1830   -1.7160 o         1 MOL     -0.690849
    161 H72       -11.3090   -0.7260   -2.2700 hn        1 MOL      0.259604
    162 H73       -10.4710   -2.2790    0.0180 h1        1 MOL      0.171740
    163 H74       -12.6090   -2.1070    1.0280 hc        1 MOL      0.000514
    164 H75       -12.9730   -2.4350   -0.5440 hc        1 MOL      0.000514
    165 H76       -13.3080    0.2750    0.6130 hc        1 MOL      0.023883
    166 H77       -14.4460   -0.9760    0.0260 hc        1 MOL      0.023883
    167 N15       -10.5240    1.0000    0.2910 n         1 MOL     -0.263898
    168 C54        -9.8390    2.1410    0.9530 c3        1 MOL     -0.200322
    169 H78        -9.1350    2.5950    0.2560 h1        1 MOL      0.091772
    170 H79       -10.5780    2.8820    1.2580 h1        1 MOL      0.091772
    171 H80        -9.3000    1.7820    1.8300 h1        1 MOL      0.091772
    172 H81       -10.8440    1.1300   -0.6580 hn        1 MOL      0.244113
    173 Ca1         2.4820    0.6370   -1.0010 Ca        1 MOL      1.796232
    174 O23         0.3360   -0.7650   -1.9170 oh        1 MOL     -0.932221
    175 H82         0.6420   -1.2550   -2.6800 ho        1 MOL      0.451932
    176 H83        -0.6030   -0.6490   -2.0650 ho        1 MOL      0.451932
    177 O24         0.2610    2.2230   -1.7800 oh        1 MOL     -0.932221
    178 H84         0.3400    3.1190   -2.1090 ho        1 MOL      0.451932
    179 H85        -0.6520    2.1570   -1.4940 ho        1 MOL      0.451932
@<TRIPOS>BOND
     1    1    2 1   
     2    1    4 1   
     3    1    5 1   
     4    1    6 1   
     5    2    3 2   
     6    2    7 1   
     7    7    8 1   
     8    7   15 1   
     9    8    9 1   
    10    8   11 1   
    11    8   16 1   
    12    9   10 2   
    13    9   19 1   
    14   11   12 1   
    15   11   17 1   
    16   11   18 1   
    17   12   13 1   
    18   12   14 1   
    19   19   20 1   
    20   19   28 1   
    21   20   21 1   
    22   20   23 1   
    23   20   29 1   
    24   21   22 2   
    25   21   41 1   
    26   23   24 1   
    27   23   30 1   
    28   23   31 1   
    29   24   25 1   
    30   24   32 1   
    31   24   33 1   
    32   25   26 1   
    33   25   34 1   
    34   25   35 1   
    35   26   27 1   
    36   26   36 1   
    37   26   37 1   
    38   27   38 1   
    39   27   39 1   
    40   27   40 1   
    41   41   42 1   
    42   41   49 1   
    43   42   43 1   
    44   42   45 1   
    45   42   50 1   
    46   43   44 2   
    47   43   53 1   
    48   45   46 1   
    49   45   51 1   
    50   45   52 1   
    51   46   47 1   
    52   46   48 1   
    53   53   54 1   
    54   53   57 1   
    55   54   55 1   
    56   54   58 1   
    57   54   59 1   
    58   55   56 2   
    59   55   60 1   
    60   60   61 1   
    61   60   68 1   
    62   61   62 1   
    63   61   64 1   
    64   61   69 1   
    65   62   63 2   
    66   62   74 1   
    67   64   65 1   
    68   64   70 1   
    69   64   71 1   
    70   65   66 1   
    71   65   67 2   
    72   66   72 1   
    73   66   73 1   
    74   74   75 1   
    75   74   78 1   
    76   75   76 1   
    77   75   79 1   
    78   75   80 1   
    79   76   77 2   
    80   76   81 1   
    81   81   82 1   
    82   81   93 1   
    83   82   83 1   
    84   82   85 1   
    85   82   94 1   
    86   83   84 2   
    87   83  102 1   
    88   85   86 1   
    89   85   95 1   
    90   85   96 1   
    91   86   87 ar  
    92   86   88 ar  
    93   87   89 ar  
    94   87   97 1   
    95   88   90 ar  
    96   88   98 1   
    97   89   91 ar  
    98   89   99 1   
    99   90   91 ar  
   100   90  100 1   
   101   91   92 1   
   102   92  101 1   
   103  102  103 1   
   104  102  110 1   
   105  103  104 1   
   106  103  106 1   
   107  103  111 1   
   108  104  105 2   
   109  104  121 1   
   110  106  107 1   
   111  106  108 1   
   112  106  112 1   
   113  107  109 1   
   114  107  113 1   
   115  107  114 1   
   116  108  115 1   
   117  108  116 1   
   118  108  117 1   
   119  109  118 1   
   120  109  119 1   
   121  109  120 1   
   122  121  122 1   
   123  121  127 1   
   124  122  123 1   
   125  122  125 1   
   126  122  128 1   
   127  123  124 2   
   128  123  132 1   
   129  125  126 1   
   130  125  129 1   
   131  125  130 1   
   132  126  131 1   
   133  132  133 1   
   134  132  137 1   
   135  133  134 1   
   136  133  136 1   
   137  133  138 1   
   138  134  135 2   
   139  134  142 1   
   140  136  139 1   
   141  136  140 1   
   142  136  141 1   
   143  142  143 1   
   144  142  147 1   
   145  143  144 1   
   146  143  146 1   
   147  143  148 1   
   148  144  145 2   
   149  144  152 1   
   150  146  149 1   
   151  146  150 1   
   152  146  151 1   
   153  152  153 1   
   154  152  161 1   
   155  153  154 1   
   156  153  156 1   
   157  153  162 1   
   158  154  155 2   
   159  154  167 1   
   160  156  157 1   
   161  156  163 1   
   162  156  164 1   
   163  157  158 1   
   164  157  165 1   
   165  157  166 1   
   166  158  159 1   
   167  158  160 1   
   168  167  168 1   
   169  167  172 1   
   170  168  169 1   
   171  168  170 1   
   172  168  171 1   
   173  174  175 1   
   174  174  176 1   
   175  177  178 1   
   176  177  179 1   
@<TRIPOS>SUBSTRUCTURE
     1 MOL         1 TEMP              0 ****  ****    0 ROOT
