@<TRIPOS>MOLECULE
MOL
  198   191     1     0     0
SMALL
resp


@<TRIPOS>ATOM
      1 C1         -8.6180   -8.1700   -0.2810 c3        1 MOL     -0.300903
      2 C2         -8.0350   -6.7430   -0.5440 c         1 MOL      0.695603
      3 O1         -7.1270   -6.6440   -1.3310 o         1 MOL     -0.642671
      4 H1         -8.8570   -8.2740    0.7780 hc        1 MOL      0.073754
      5 H2         -9.5220   -8.3080   -0.8720 hc        1 MOL      0.073754
      6 H3         -7.8800   -8.9210   -0.5620 hc        1 MOL      0.073754
      7 N1         -8.6070   -5.7230    0.0640 n         1 MOL     -0.536985
      8 C3         -8.0710   -4.3600   -0.0670 c3        1 MOL      0.159727
      9 C4         -6.6120   -4.3230    0.3280 c         1 MOL      0.597768
     10 O2         -6.2390   -4.8410    1.3430 o         1 MOL     -0.451841
     11 C5         -8.8820   -3.3380    0.7500 c3        1 MOL     -0.241360
     12 C6         -9.0190   -3.7960    2.2150 c         1 MOL      0.642095
     13 O3         -9.2450   -5.0160    2.5400 o         1 MOL     -0.612105
     14 O4         -8.9210   -2.9020    3.1250 o         1 MOL     -0.612105
     15 H4         -9.3910   -5.9060    0.6710 hn        1 MOL      0.297309
     16 H5         -8.1770   -4.0490   -1.1040 h1        1 MOL     -0.013097
     17 H6         -9.8440   -3.2620    0.2630 hc        1 MOL      0.054016
     18 H7         -8.3050   -2.4160    0.7470 hc        1 MOL      0.054016
     19 N2         -5.7480   -3.6350   -0.4470 n         1 MOL     -0.434370
     20 C7         -4.3190   -3.5820   -0.2800 c3        1 MOL      0.067504
     21 C8         -3.7980   -2.9120    0.9990 c         1 MOL      0.478692
     22 O5         -3.2160   -3.6360    1.8580 o         1 MOL     -0.566528
     23 C9         -3.6570   -3.1270   -1.6100 c3        1 MOL     -0.193014
     24 C10        -3.6750   -4.1980   -2.7660 c3        1 MOL      0.227614
     25 C11        -3.3580   -3.7480   -4.0960 c3        1 MOL      0.083572
     26 C12        -3.5580   -4.7540   -5.2780 c3        1 MOL     -0.011643
     27 N3         -3.3760   -3.9860   -6.5520 n4        1 MOL     -0.285358
     28 H8         -6.2060   -3.1610   -1.2100 hn        1 MOL      0.205153
     29 H9         -3.9490   -4.5930   -0.0730 h1        1 MOL      0.072347
     30 H10        -2.6690   -2.7310   -1.4090 hc        1 MOL      0.063686
     31 H11        -4.3270   -2.4060   -2.0800 hc        1 MOL      0.063686
     32 H12        -4.6560   -4.6680   -2.7730 hc        1 MOL     -0.030818
     33 H13        -3.0250   -5.0440   -2.5620 hc        1 MOL     -0.030818
     34 H14        -2.3190   -3.4190   -4.0830 hc        1 MOL     -0.033211
     35 H15        -4.0030   -2.8820   -4.2780 hc        1 MOL     -0.033211
     36 H16        -4.5630   -5.1640   -5.1830 hx        1 MOL      0.093033
     37 H17        -2.8070   -5.5370   -5.2140 hx        1 MOL      0.093033
     38 H18        -2.4400   -3.6780   -6.7800 hn        1 MOL      0.299625
     39 H19        -3.5370   -4.5250   -7.3920 hn        1 MOL      0.299625
     40 H20        -4.0590   -3.2520   -6.6820 hn        1 MOL      0.299625
     41 N4         -4.0030   -1.6360    1.3360 n         1 MOL     -0.172058
     42 C13        -4.5890   -0.5360    0.5610 c3        1 MOL     -0.201395
     43 C14        -5.1110    0.5890    1.4280 c         1 MOL      0.626048
     44 O6         -4.8040    0.7070    2.6470 o         1 MOL     -0.527311
     45 C15        -3.5550    0.0340   -0.4050 c3        1 MOL      0.207336
     46 C16        -2.1860    0.1630    0.3190 c         1 MOL      0.587360
     47 O7         -1.9980    0.9370    1.3140 o         1 MOL     -0.730395
     48 O8         -1.3080   -0.6540    0.1150 o         1 MOL     -0.730395
     49 H21        -3.8110   -1.4340    2.3070 hn        1 MOL      0.247341
     50 H22        -5.4760   -0.8670    0.0170 h1        1 MOL      0.069761
     51 H23        -3.9040    1.0300   -0.6680 hc        1 MOL     -0.090155
     52 H24        -3.4290   -0.4920   -1.3580 hc        1 MOL     -0.090155
     53 N5         -5.9090    1.4930    0.8670 n         1 MOL     -0.523975
     54 C17        -6.3570    2.8090    1.4280 c3        1 MOL      0.090793
     55 C18        -5.4690    4.0330    1.0150 c         1 MOL      0.564523
     56 O9         -4.4880    3.7420    0.3250 o         1 MOL     -0.529362
     57 H25        -6.1350    1.3440   -0.1130 hn        1 MOL      0.316090
     58 H26        -6.4990    2.8740    2.5050 h1        1 MOL      0.061311
     59 H27        -7.3630    2.9020    1.0000 h1        1 MOL      0.061311
     60 N6         -5.7620    5.2750    1.4120 n         1 MOL     -0.558198
     61 C19        -5.0130    6.5160    1.0830 c3        1 MOL      0.483836
     62 C20        -4.6910    6.5940   -0.4120 c         1 MOL      0.440456
     63 O10        -5.5370    6.6150   -1.2590 o         1 MOL     -0.510213
     64 C21        -5.7980    7.7010    1.6400 c3        1 MOL     -0.290861
     65 C22        -7.2720    7.8290    1.3370 c         1 MOL      0.722988
     66 O11        -7.6310    8.7950    0.6550 o         1 MOL     -0.630679
     67 O12        -8.1350    7.0110    1.7210 o         1 MOL     -0.630679
     68 H28        -6.6970    5.4710    1.7480 hn        1 MOL      0.213835
     69 H29        -4.1020    6.4270    1.6580 h1        1 MOL     -0.065212
     70 H30        -5.2110    8.5790    1.3550 hc        1 MOL      0.045909
     71 H31        -5.7290    7.5660    2.7130 hc        1 MOL      0.045909
     72 N7         -3.4200    6.6190   -0.8240 n         1 MOL     -0.392238
     73 C23        -2.1340    6.4870   -0.1580 c3        1 MOL     -0.198107
     74 C24        -1.0090    6.0980   -1.0930 c         1 MOL      0.754752
     75 O13        -0.9670    6.4840   -2.2980 o         1 MOL     -0.564014
     76 H32        -3.3920    6.4070   -1.8090 hn        1 MOL      0.273567
     77 H33        -2.2660    5.6620    0.5430 h1        1 MOL      0.094070
     78 H34        -1.9540    7.4080    0.3970 h1        1 MOL      0.094070
     79 N8         -0.1770    5.1450   -0.6140 n         1 MOL     -0.758831
     80 C25         0.7360    4.4140   -1.4950 c3        1 MOL      0.483848
     81 C26         0.5310    2.9360   -1.4570 c         1 MOL      0.314390
     82 O14         0.0070    2.3920   -0.5030 o         1 MOL     -0.420087
     83 C27         2.2060    4.8000   -1.0830 c3        1 MOL      0.202089
     84 C28         2.5160    6.2840   -1.5420 c3        1 MOL     -0.223126
     85 O15         3.2300    4.0950   -1.7330 oh        1 MOL     -0.638337
     86 H35        -0.2640    4.8900    0.3580 hn        1 MOL      0.325875
     87 H36         0.7200    4.8310   -2.5040 h1        1 MOL      0.013863
     88 H37         2.3320    4.6330   -0.0110 h1        1 MOL      0.006389
     89 H38         3.9140    4.0830   -1.0540 ho        1 MOL      0.408943
     90 H39         1.8550    7.0100   -1.0760 hc        1 MOL      0.061091
     91 H40         3.5620    6.4740   -1.2820 hc        1 MOL      0.061091
     92 H41         2.3250    6.3710   -2.6130 hc        1 MOL      0.061091
     93 N9          0.8250    2.2450   -2.5970 n         1 MOL     -0.401827
     94 C29         0.7460    0.8320   -2.9680 c3        1 MOL     -0.220123
     95 C30         1.6240   -0.0820   -2.1040 c         1 MOL      0.520077
     96 O16         1.5490    0.0220   -0.8500 o         1 MOL     -0.569185
     97 C31        -0.7240    0.2750   -3.0130 c3        1 MOL      0.614345
     98 C32        -1.8090    1.2950   -3.2630 c3        1 MOL      0.034396
     99 C33        -0.6890   -0.7550   -4.2220 c3        1 MOL     -0.251364
    100 C34        -1.5990    2.4070   -4.3810 c3        1 MOL     -0.413056
    101 H42         1.1390    2.8470   -3.3600 hn        1 MOL      0.280289
    102 H43         1.0590    0.7840   -4.0070 h1        1 MOL      0.080140
    103 H44        -0.9390   -0.2020   -2.0570 hc        1 MOL     -0.115352
    104 H45        -1.9120    1.7480   -2.2710 hc        1 MOL      0.042470
    105 H46        -2.7870    0.8380   -3.4020 hc        1 MOL      0.042470
    106 H47        -0.4810   -0.3210   -5.2020 hc        1 MOL     -0.001825
    107 H48         0.0580   -1.5130   -3.9930 hc        1 MOL     -0.001825
    108 H49        -1.6990   -1.1450   -4.1950 hc        1 MOL     -0.001825
    109 H50        -0.9990    1.9850   -5.1800 hc        1 MOL      0.101225
    110 H51        -2.5570    2.7320   -4.7900 hc        1 MOL      0.101225
    111 H52        -1.1360    3.2960   -3.9430 hc        1 MOL      0.101225
    112 N10         2.4640   -0.9410   -2.7240 n         1 MOL     -0.289493
    113 C35         3.2710   -2.0030   -1.9780 c3        1 MOL     -0.004396
    114 C36         4.8100   -1.8710   -2.2150 c         1 MOL      0.535339
    115 O17         5.4780   -2.7830   -1.7770 o         1 MOL     -0.511939
    116 C37         2.6310   -3.4060   -2.1720 c3        1 MOL      0.300117
    117 C38         3.2750   -4.4260   -3.1260 c3        1 MOL     -0.380532
    118 O18         1.2370   -3.2960   -2.5090 oh        1 MOL     -0.570235
    119 H53         2.4970   -0.9070   -3.7320 hn        1 MOL      0.195982
    120 H54         3.0810   -1.7780   -0.9370 h1        1 MOL      0.091992
    121 H55         2.6980   -3.7310   -1.1400 h1        1 MOL      0.079284
    122 H56         1.2130   -2.8750   -3.3740 ho        1 MOL      0.357080
    123 H57         3.0700   -4.2490   -4.1840 hc        1 MOL      0.100620
    124 H58         4.3520   -4.4680   -2.9570 hc        1 MOL      0.100620
    125 H59         2.9020   -5.4560   -3.0430 hc        1 MOL      0.100620
    126 N11         5.3190   -0.7260   -2.7220 n         1 MOL     -0.441278
    127 C39         6.7570   -0.4390   -3.0090 c3        1 MOL     -0.106546
    128 C40         7.5890   -0.1040   -1.7330 c         1 MOL      0.672845
    129 O19         8.0240    1.0450   -1.4760 o         1 MOL     -0.542677
    130 C41         7.0370    0.6760   -4.0550 c3        1 MOL      0.370885
    131 C42         8.4920    0.7640   -4.5390 c3        1 MOL     -0.433049
    132 O20         6.3710    0.4420   -5.2220 oh        1 MOL     -0.540873
    133 H60         4.6520    0.0040   -2.9170 hn        1 MOL      0.268676
    134 H61         7.1570   -1.3640   -3.4270 h1        1 MOL      0.110210
    135 H62         6.7120    1.6580   -3.7330 h1        1 MOL      0.024104
    136 H63         5.5480    0.7890   -4.8760 ho        1 MOL      0.332271
    137 H64         8.8180   -0.0800   -5.1510 hc        1 MOL      0.119269
    138 H65         8.5820    1.5470   -5.2880 hc        1 MOL      0.119269
    139 H66         9.2290    0.9880   -3.7800 hc        1 MOL      0.119269
    140 N12         7.5770   -1.1030   -0.8770 n         1 MOL     -0.729872
    141 C43         7.5880   -1.0700    0.6010 c3        1 MOL      0.288198
    142 C44         6.2430   -0.9850    1.1590 c         1 MOL      0.562244
    143 O21         5.5260   -0.1940    0.6130 o         1 MOL     -0.547154
    144 C45         8.6700   -0.1400    1.2040 c3        1 MOL     -0.333937
    145 C46        10.1130   -0.6720    0.8760 c3        1 MOL     -0.022810
    146 C47        11.2220    0.1010    1.6300 c3        1 MOL      0.082293
    147 C48        12.6590   -0.2690    1.3620 c3        1 MOL     -0.106093
    148 N13        13.1310    0.1450    0.0250 n4        1 MOL     -0.117177
    149 H67         7.0260   -1.8830   -1.2070 hn        1 MOL      0.343349
    150 H68         7.9810   -2.0130    0.9750 h1        1 MOL      0.012022
    151 H69         8.5610   -0.0980    2.2930 hc        1 MOL      0.116968
    152 H70         8.6550    0.9130    0.9280 hc        1 MOL      0.116968
    153 H71        10.1270   -0.5880   -0.2160 hc        1 MOL      0.036284
    154 H72        10.2410   -1.6920    1.2200 hc        1 MOL      0.036284
    155 H73        11.0840   -0.1140    2.6950 hc        1 MOL      0.025186
    156 H74        11.0810    1.1720    1.4670 hc        1 MOL      0.025186
    157 H75        12.6850   -1.3520    1.5210 hx        1 MOL      0.102043
    158 H76        13.2450    0.2910    2.1000 hx        1 MOL      0.102043
    159 H77        14.1070   -0.0120   -0.1910 hn        1 MOL      0.179055
    160 H78        12.5390   -0.2360   -0.6920 hn        1 MOL      0.179055
    161 H79        13.0670    1.1430   -0.1080 hn        1 MOL      0.179055
    162 N14         6.0000   -1.6430    2.2810 n         1 MOL     -0.598088
    163 C49         4.7040   -1.3900    2.9220 c3        1 MOL      0.493468
    164 C50         3.4680   -2.0350    2.2730 c         1 MOL      0.480162
    165 O22         2.4990   -1.3610    2.0870 o         1 MOL     -0.669812
    166 C51         4.7840   -1.8420    4.4060 c3        1 MOL     -0.033900
    167 C52         5.6420   -0.9630    5.3630 c3        1 MOL     -0.272363
    168 C53         5.5960   -1.5730    6.7860 c         1 MOL      0.697959
    169 O23         6.5820   -2.1780    7.3030 o         1 MOL     -0.689297
    170 O24         4.4650   -1.6480    7.3040 o         1 MOL     -0.689297
    171 H80         6.7010   -2.1630    2.7890 hn        1 MOL      0.337441
    172 H81         4.5600   -0.3120    2.9630 h1        1 MOL     -0.054046
    173 H82         5.1280   -2.8730    4.4820 hc        1 MOL      0.044898
    174 H83         3.7720   -1.8640    4.8200 hc        1 MOL      0.044898
    175 H84         5.2740    0.0570    5.4210 hc        1 MOL      0.006666
    176 H85         6.6470   -1.0540    4.9570 hc        1 MOL      0.006666
    177 N15         3.3570   -3.3510    2.0800 n         1 MOL     -0.455639
    178 C54         4.3750   -4.3580    2.1600 c3        1 MOL      0.118086
    179 H86         4.3830   -4.7870    3.1610 h1        1 MOL      0.008830
    180 H87         4.1690   -5.1410    1.4310 h1        1 MOL      0.008830
    181 H88         5.3460   -3.9110    1.9490 h1        1 MOL      0.008830
    182 H89         2.4380   -3.6660    1.8170 hn        1 MOL      0.320502
    183 Ca1         0.6430    0.3300    1.5600 Ca        1 MOL      1.823543
    184 O25        -0.5850   -1.9070    2.5410 oh        1 MOL     -0.839046
    185 H90        -0.0710   -2.2640    3.2580 ho        1 MOL      0.410568
    186 H91        -1.2530   -2.5730    2.3640 ho        1 MOL      0.410568
    187 O26         0.7560    2.7790    2.5710 oh        1 MOL     -0.839046
    188 H92         1.3110    3.0200    3.3190 ho        1 MOL      0.410568
    189 H93        -0.0770    3.2150    2.7560 ho        1 MOL      0.410568
    190 O27        -1.2680    0.8910    3.7530 oh        1 MOL     -0.839046
    191 H94        -1.8560    0.9420    3.0020 ho        1 MOL      0.410568
    192 H95        -1.8370    0.8850    4.5190 ho        1 MOL      0.410568
    193 O28         1.9640    0.4370    4.0190 oh        1 MOL     -0.839046
    194 H96         2.2540    1.3090    4.2870 ho        1 MOL      0.410568
    195 H97         1.8440   -0.0430    4.8270 ho        1 MOL      0.410568
    196 O29         3.1190    1.6770    1.3290 oh        1 MOL     -0.839046
    197 H98         3.4380    2.4660    1.7660 ho        1 MOL      0.410568
    198 H99         3.9070    1.1830    1.1240 ho        1 MOL      0.410568
@<TRIPOS>BOND
     1    1    2 1   
     2    1    4 1   
     3    1    5 1   
     4    1    6 1   
     5    2    3 2   
     6    2    7 1   
     7    7    8 1   
     8    7   15 1   
     9    8    9 1   
    10    8   11 1   
    11    8   16 1   
    12    9   10 2   
    13    9   19 1   
    14   11   12 1   
    15   11   17 1   
    16   11   18 1   
    17   12   13 1   
    18   12   14 1   
    19   19   20 1   
    20   19   28 1   
    21   20   21 1   
    22   20   23 1   
    23   20   29 1   
    24   21   22 2   
    25   21   41 1   
    26   23   24 1   
    27   23   30 1   
    28   23   31 1   
    29   24   25 1   
    30   24   32 1   
    31   24   33 1   
    32   25   26 1   
    33   25   34 1   
    34   25   35 1   
    35   26   27 1   
    36   26   36 1   
    37   26   37 1   
    38   27   38 1   
    39   27   39 1   
    40   27   40 1   
    41   41   42 1   
    42   41   49 1   
    43   42   43 1   
    44   42   45 1   
    45   42   50 1   
    46   43   44 2   
    47   43   53 1   
    48   45   46 1   
    49   45   51 1   
    50   45   52 1   
    51   46   47 1   
    52   46   48 1   
    53   53   54 1   
    54   53   57 1   
    55   54   55 1   
    56   54   58 1   
    57   54   59 1   
    58   55   56 2   
    59   55   60 1   
    60   60   61 1   
    61   60   68 1   
    62   61   62 1   
    63   61   64 1   
    64   61   69 1   
    65   62   63 2   
    66   62   72 1   
    67   64   65 1   
    68   64   70 1   
    69   64   71 1   
    70   65   66 1   
    71   65   67 1   
    72   72   73 1   
    73   72   76 1   
    74   73   74 1   
    75   73   77 1   
    76   73   78 1   
    77   74   75 2   
    78   74   79 1   
    79   79   80 1   
    80   79   86 1   
    81   80   81 1   
    82   80   83 1   
    83   80   87 1   
    84   81   82 2   
    85   81   93 1   
    86   83   84 1   
    87   83   85 1   
    88   83   88 1   
    89   84   90 1   
    90   84   91 1   
    91   84   92 1   
    92   85   89 1   
    93   93   94 1   
    94   93  101 1   
    95   94   95 1   
    96   94   97 1   
    97   94  102 1   
    98   95   96 2   
    99   95  112 1   
   100   97   98 1   
   101   97   99 1   
   102   97  103 1   
   103   98  100 1   
   104   98  104 1   
   105   98  105 1   
   106   99  106 1   
   107   99  107 1   
   108   99  108 1   
   109  100  109 1   
   110  100  110 1   
   111  100  111 1   
   112  112  113 1   
   113  112  119 1   
   114  113  114 1   
   115  113  116 1   
   116  113  120 1   
   117  114  115 2   
   118  114  126 1   
   119  116  117 1   
   120  116  118 1   
   121  116  121 1   
   122  117  123 1   
   123  117  124 1   
   124  117  125 1   
   125  118  122 1   
   126  126  127 1   
   127  126  133 1   
   128  127  128 1   
   129  127  130 1   
   130  127  134 1   
   131  128  129 2   
   132  128  140 1   
   133  130  131 1   
   134  130  132 1   
   135  130  135 1   
   136  131  137 1   
   137  131  138 1   
   138  131  139 1   
   139  132  136 1   
   140  140  141 1   
   141  140  149 1   
   142  141  142 1   
   143  141  144 1   
   144  141  150 1   
   145  142  143 2   
   146  142  162 1   
   147  144  145 1   
   148  144  151 1   
   149  144  152 1   
   150  145  146 1   
   151  145  153 1   
   152  145  154 1   
   153  146  147 1   
   154  146  155 1   
   155  146  156 1   
   156  147  148 1   
   157  147  157 1   
   158  147  158 1   
   159  148  159 1   
   160  148  160 1   
   161  148  161 1   
   162  162  163 1   
   163  162  171 1   
   164  163  164 1   
   165  163  166 1   
   166  163  172 1   
   167  164  165 2   
   168  164  177 1   
   169  166  167 1   
   170  166  173 1   
   171  166  174 1   
   172  167  168 1   
   173  167  175 1   
   174  167  176 1   
   175  168  169 1   
   176  168  170 1   
   177  177  178 1   
   178  177  182 1   
   179  178  179 1   
   180  178  180 1   
   181  178  181 1   
   182  184  185 1   
   183  184  186 1   
   184  187  188 1   
   185  187  189 1   
   186  190  191 1   
   187  190  192 1   
   188  193  194 1   
   189  193  195 1   
   190  196  197 1   
   191  196  198 1   
@<TRIPOS>SUBSTRUCTURE
     1 MOL         1 TEMP              0 ****  ****    0 ROOT
