@<TRIPOS>MOLECULE
MOL
  188   182     1     0     0
SMALL
resp


@<TRIPOS>ATOM
      1 C1         -6.1620   -2.9960    2.3090 c3        1 MOL     -0.411848
      2 C2         -6.3630   -2.5470    0.8310 c         1 MOL      0.642715
      3 O1         -5.6020   -1.7730    0.1870 o         1 MOL     -0.566120
      4 H1         -5.1300   -3.3140    2.4540 hc        1 MOL      0.103127
      5 H2         -6.3810   -2.1620    2.9760 hc        1 MOL      0.103127
      6 H3         -6.8330   -3.8260    2.5320 hc        1 MOL      0.103127
      7 N1         -7.5500   -2.8450    0.3050 n         1 MOL     -0.480281
      8 C3         -8.0370   -2.1900   -0.8830 c3        1 MOL      0.047112
      9 C4         -8.1150   -0.6370   -0.6860 c         1 MOL      0.441692
     10 O2         -7.8120    0.0750   -1.6320 o         1 MOL     -0.458395
     11 C5         -7.2220   -2.7000   -2.1520 c3        1 MOL     -0.288592
     12 C6         -7.6500   -2.1420   -3.5340 c         1 MOL      0.729310
     13 O3         -6.8280   -2.2530   -4.4520 o         1 MOL     -0.661744
     14 O4         -8.8750   -1.9250   -3.7270 o         1 MOL     -0.661744
     15 H4         -8.2810   -3.3970    0.7510 hn        1 MOL      0.296000
     16 H5         -9.0880   -2.4290   -1.0750 h1        1 MOL      0.051459
     17 H6         -7.2170   -3.7920   -2.1850 hc        1 MOL      0.096436
     18 H7         -6.1510   -2.4990   -2.0970 hc        1 MOL      0.096436
     19 N2         -8.4690   -0.1570    0.5180 n         1 MOL     -0.336881
     20 C7         -8.7420    1.2690    0.8360 c3        1 MOL     -0.026860
     21 C8         -7.4950    2.0760    1.1610 c         1 MOL      0.534203
     22 O5         -7.4540    3.2680    1.3460 o         1 MOL     -0.550311
     23 C9         -9.9670    1.4180    1.7590 c3        1 MOL     -0.003150
     24 C10       -11.2780    1.1130    1.0100 c3        1 MOL      0.127751
     25 C11       -12.5310    0.8500    1.7900 c3        1 MOL      0.035362
     26 C12       -13.6300    0.3850    0.8690 c3        1 MOL      0.046295
     27 N3        -14.9970    0.6220    1.5200 n4        1 MOL     -0.149620
     28 H8         -8.7860   -0.8340    1.1990 hn        1 MOL      0.215594
     29 H9         -9.0490    1.6500   -0.1330 h1        1 MOL      0.119899
     30 H10       -10.0210    2.3930    2.2550 hc        1 MOL      0.014302
     31 H11        -9.9320    0.6880    2.5680 hc        1 MOL      0.014302
     32 H12       -11.1930    0.2110    0.4030 hc        1 MOL     -0.016707
     33 H13       -11.5450    1.9660    0.3740 hc        1 MOL     -0.016707
     34 H14       -12.7060    1.7640    2.3670 hc        1 MOL     -0.013816
     35 H15       -12.3240    0.0950    2.5500 hc        1 MOL     -0.013816
     36 H16       -13.5670   -0.6990    0.7770 hx        1 MOL      0.065075
     37 H17       -13.5940    0.9690   -0.0560 hx        1 MOL      0.065075
     38 H18       -15.1640    0.0240    2.3220 hn        1 MOL      0.189362
     39 H19       -15.0990    1.5710    1.8370 hn        1 MOL      0.189362
     40 H20       -15.7260    0.4710    0.8410 hn        1 MOL      0.189362
     41 N4         -6.3170    1.4340    0.9800 n         1 MOL     -0.388317
     42 C13        -4.9900    1.9780    1.1390 c3        1 MOL      0.081500
     43 C14        -4.7500    2.9360   -0.0370 c         1 MOL      0.607496
     44 O6         -5.0470    2.6710   -1.1770 o         1 MOL     -0.433964
     45 C15        -4.0090    0.8450    1.2630 c3        1 MOL     -0.211939
     46 C16        -2.5430    1.2310    1.3470 c         1 MOL      0.610934
     47 O7         -1.8770    1.1130    2.3800 o         1 MOL     -0.701309
     48 O8         -1.8970    1.6380    0.3340 o         1 MOL     -0.701309
     49 H21        -6.3230    0.4590    0.7280 hn        1 MOL      0.187215
     50 H22        -4.9590    2.5660    2.0560 h1        1 MOL      0.021117
     51 H23        -4.1190    0.2920    0.3340 hc        1 MOL      0.104412
     52 H24        -4.2560    0.2090    2.1120 hc        1 MOL      0.104412
     53 N5         -3.9590    3.9850    0.1520 n         1 MOL     -0.468510
     54 C17        -3.5920    4.9700   -0.8230 c3        1 MOL      0.047933
     55 C18        -2.8110    4.4740   -2.0650 c         1 MOL      0.414273
     56 O9         -2.9670    5.1370   -3.0480 o         1 MOL     -0.526461
     57 H25        -3.6790    4.2260    1.0870 hn        1 MOL      0.267435
     58 H26        -3.0640    5.7800   -0.3280 h1        1 MOL      0.057489
     59 H27        -4.4840    5.4790   -1.1880 h1        1 MOL      0.057489
     60 N6         -2.2020    3.2710   -2.0770 n         1 MOL     -0.156871
     61 C19        -1.6000    2.5680   -3.2210 c3        1 MOL      0.045819
     62 C20        -2.0440    1.1090   -3.2060 c         1 MOL      0.375951
     63 O10        -1.5630    0.2320   -3.9060 o         1 MOL     -0.519091
     64 C21        -0.1550    2.7870   -3.3310 c3        1 MOL     -0.393504
     65 C22         0.6690    1.9870   -2.2770 c         1 MOL      0.688044
     66 N7          1.3270    0.8770   -2.6910 n         1 MOL     -0.738647
     67 O11         0.6640    2.2240   -1.0800 o         1 MOL     -0.696120
     68 H28        -2.1730    2.7660   -1.2090 hn        1 MOL      0.145901
     69 H29        -2.0450    2.8830   -4.1660 h1        1 MOL      0.131580
     70 H30         0.0450    3.8610   -3.2930 hc        1 MOL      0.136819
     71 H31         0.1240    2.4600   -4.3290 hc        1 MOL      0.136819
     72 H32         1.3730    0.5410   -3.6410 hn        1 MOL      0.364268
     73 H33         1.6400    0.4670   -1.8220 hn        1 MOL      0.364268
     74 N8         -3.0840    0.7770   -2.4380 n         1 MOL      0.042507
     75 C23        -3.6520   -0.5960   -2.3580 c3        1 MOL     -0.407714
     76 C24        -2.7550   -1.6690   -1.7630 c         1 MOL      0.719920
     77 O12        -2.9200   -2.8140   -2.1150 o         1 MOL     -0.542523
     78 H34        -3.4820    1.5270   -1.8940 hn        1 MOL     -0.010447
     79 H35        -3.9560   -0.9550   -3.3380 h1        1 MOL      0.197528
     80 H36        -4.5390   -0.5620   -1.7200 h1        1 MOL      0.197528
     81 N9         -1.7920   -1.4230   -0.8570 n         1 MOL     -0.603099
     82 C25        -1.0150   -2.3320   -0.0360 c3        1 MOL      0.211127
     83 C26         0.3290   -1.6590    0.2920 c         1 MOL      0.501297
     84 O13         0.4860   -0.4630    0.2200 o         1 MOL     -0.458827
     85 C27        -1.7740   -2.7670    1.1910 c3        1 MOL     -0.183130
     86 C28        -1.0400   -3.2110    2.4470 ca        1 MOL      0.055729
     87 C29        -0.4600   -4.4860    2.4440 ca        1 MOL     -0.159327
     88 C30        -1.1830   -2.4650    3.6400 ca        1 MOL     -0.159327
     89 C31         0.1560   -4.9540    3.6100 ca        1 MOL     -0.252648
     90 C32        -0.6570   -3.0170    4.8250 ca        1 MOL     -0.252648
     91 C33         0.0320   -4.2690    4.8270 ca        1 MOL      0.328406
     92 O14         0.5140   -4.7960    5.9270 oh        1 MOL     -0.465500
     93 H37        -1.7650   -0.4690   -0.5220 hn        1 MOL      0.303696
     94 H38        -0.7990   -3.2100   -0.6480 h1        1 MOL      0.029433
     95 H39        -2.3780   -3.6130    0.8620 hc        1 MOL      0.100002
     96 H40        -2.3790   -1.9160    1.5160 hc        1 MOL      0.100002
     97 H41        -0.4530   -5.0980    1.5510 ha        1 MOL      0.147879
     98 H42        -1.6940   -1.5190    3.5430 ha        1 MOL      0.147879
     99 H43         0.7060   -5.8770    3.5090 ha        1 MOL      0.134920
    100 H44        -0.7720   -2.5790    5.8000 ha        1 MOL      0.134920
    101 H45         0.3530   -4.2350    6.6970 ho        1 MOL      0.373602
    102 N10         1.3440   -2.4720    0.5540 n         1 MOL     -0.517089
    103 C34         2.7910   -2.0720    0.5680 c3        1 MOL      0.562605
    104 C35         3.2200   -1.5090   -0.8560 c         1 MOL     -0.069956
    105 O15         3.6620   -0.3560   -0.9680 o         1 MOL     -0.419987
    106 C36         3.7170   -3.1580    1.1450 c3        1 MOL      0.126148
    107 C37         3.2490   -3.8600    2.4700 c3        1 MOL      0.027268
    108 C38         5.1690   -2.7080    1.2540 c3        1 MOL     -0.490832
    109 C39         3.0710   -2.7390    3.5140 c3        1 MOL      0.056082
    110 H46         1.1920   -3.4700    0.6000 hn        1 MOL      0.214084
    111 H47         2.8410   -1.2300    1.2560 h1        1 MOL     -0.160014
    112 H48         3.7170   -3.9510    0.4040 hc        1 MOL     -0.094407
    113 H49         4.0840   -4.4510    2.8510 hc        1 MOL      0.013837
    114 H50         2.3400   -4.4290    2.2780 hc        1 MOL      0.013837
    115 H51         5.7500   -3.5460    1.6440 hc        1 MOL      0.139813
    116 H52         5.4940   -2.3240    0.2850 hc        1 MOL      0.139813
    117 H53         5.2440   -1.9160    1.9930 hc        1 MOL      0.139813
    118 H54         3.9700   -2.1700    3.7230 hc        1 MOL     -0.024556
    119 H55         2.1220   -2.2100    3.3700 hc        1 MOL     -0.024556
    120 H56         2.8210   -3.2620    4.4390 hc        1 MOL     -0.024556
    121 N11         3.0340   -2.3180   -1.8810 n         1 MOL     -0.006559
    122 C40         3.6130   -1.9740   -3.1760 c3        1 MOL     -0.109093
    123 C41         5.1600   -1.9680   -3.2880 c         1 MOL      0.549435
    124 O16         5.7170   -1.3840   -4.2310 o         1 MOL     -0.542169
    125 C42         3.0720   -2.8110   -4.3490 c3        1 MOL     -0.073840
    126 O17         3.1280   -4.2190   -3.9480 oh        1 MOL     -0.628088
    127 H57         2.6160   -3.2400   -1.7500 hn        1 MOL      0.232555
    128 H58         3.3770   -0.9130   -3.2770 h1        1 MOL      0.089857
    129 H59         3.7140   -2.7350   -5.2270 h1        1 MOL      0.137705
    130 H60         2.0270   -2.5850   -4.5290 h1        1 MOL      0.137705
    131 H61         3.4340   -4.7510   -4.6920 ho        1 MOL      0.432711
    132 N12         5.7920   -2.6400   -2.3850 n         1 MOL     -0.186717
    133 C43         7.2140   -2.7680   -2.4500 c3        1 MOL      0.161082
    134 C44         8.0930   -1.4130   -2.4510 c         1 MOL      0.378854
    135 O18         9.3330   -1.4490   -2.5920 o         1 MOL     -0.515734
    136 C45         7.6290   -3.8630   -3.4960 c3        1 MOL     -0.359900
    137 H62         5.3320   -3.4350   -1.9700 hn        1 MOL      0.203925
    138 H63         7.5120   -3.1790   -1.4850 h1        1 MOL      0.034398
    139 H64         7.5080   -3.4480   -4.4960 hc        1 MOL      0.104501
    140 H65         8.6550   -4.2170   -3.3810 hc        1 MOL      0.104501
    141 H66         6.8660   -4.6520   -3.4790 hc        1 MOL      0.104501
    142 N13         7.4680   -0.2530   -2.3320 n         1 MOL     -0.318123
    143 C46         8.1550    0.9840   -1.9080 c3        1 MOL      0.159781
    144 C47         8.5170    0.9000   -0.4050 c         1 MOL      0.541340
    145 O19         7.7360    0.4900    0.4600 o         1 MOL     -0.544554
    146 C48         7.4290    2.2390   -2.4540 c3        1 MOL     -0.288860
    147 H67         6.4530   -0.3210   -2.3000 hn        1 MOL      0.206113
    148 H68         9.0770    0.8800   -2.4890 h1        1 MOL      0.058403
    149 H69         7.9680    3.1240   -2.1070 hc        1 MOL      0.088881
    150 H70         7.5590    2.3280   -3.5300 hc        1 MOL      0.088881
    151 H71         6.4170    2.3920   -2.0670 hc        1 MOL      0.088881
    152 N14         9.7550    1.1740   -0.0460 n         1 MOL     -0.507635
    153 C49        10.2030    1.4080    1.3360 c3        1 MOL      0.274469
    154 C50        10.2230    0.1730    2.2550 c         1 MOL      0.290062
    155 O20         9.8950    0.3430    3.4850 o         1 MOL     -0.484651
    156 C51         9.7260    2.6690    2.0260 c3        1 MOL     -0.011064
    157 C52        10.1910    3.9780    1.2620 c3        1 MOL     -0.156419
    158 C53         9.2130    5.2160    1.3910 c         1 MOL      0.711468
    159 O21         9.0770    5.9460    0.4310 o         1 MOL     -0.685733
    160 O22         8.6690    5.4460    2.5270 o         1 MOL     -0.685733
    161 H72        10.4000    1.4700   -0.7660 hn        1 MOL      0.278832
    162 H73        11.2370    1.7270    1.2140 h1        1 MOL     -0.022042
    163 H74        10.0890    2.8220    3.0360 hc        1 MOL      0.019625
    164 H75         8.6420    2.7590    2.0710 hc        1 MOL      0.019625
    165 H76        10.1670    3.6780    0.2130 hc        1 MOL      0.013099
    166 H77        11.1640    4.3340    1.5900 hc        1 MOL      0.013099
    167 N15        10.5400   -1.0410    1.7010 n         1 MOL     -0.189322
    168 C54        10.4740   -2.2970    2.4320 c3        1 MOL     -0.183134
    169 H78        11.3510   -2.3900    3.0730 h1        1 MOL      0.093876
    170 H79         9.5740   -2.3150    3.0450 h1        1 MOL      0.093876
    171 H80        10.4510   -3.1280    1.7270 h1        1 MOL      0.093876
    172 H81        10.8060   -0.9460    0.7300 hn        1 MOL      0.193881
    173 Ca1         0.5720    1.9370    1.4850 Ca        1 MOL      1.785134
    174 O23         3.0570    1.3950    0.9200 oh        1 MOL     -0.849016
    175 H82         3.7800    1.9680    1.1760 ho        1 MOL      0.424596
    176 H83         3.3590    0.9450    0.1360 ho        1 MOL      0.424596
    177 O24        -0.7710    4.4510    1.2570 oh        1 MOL     -0.849016
    178 H84        -0.9470    5.0850    0.5540 ho        1 MOL      0.424596
    179 H85        -0.5770    4.9970    2.0160 ho        1 MOL      0.424596
    180 O25         1.0090    0.1140    3.5150 oh        1 MOL     -0.849016
    181 H86         1.9630    0.1410    3.4710 ho        1 MOL      0.424596
    182 H87         0.8100    0.0870    4.4550 ho        1 MOL      0.424596
    183 O26         2.1530    4.2450    1.1830 oh        1 MOL     -0.849016
    184 H88         2.6330    4.9540    1.6290 ho        1 MOL      0.424596
    185 H89         2.3960    4.3340    0.2670 ho        1 MOL      0.424596
    186 O27         0.5580    3.3120    3.7440 oh        1 MOL     -0.849016
    187 H90         0.1310    4.1510    3.9080 ho        1 MOL      0.424596
    188 H91         0.7270    2.9620    4.6190 ho        1 MOL      0.424596
@<TRIPOS>BOND
     1    1    2 1   
     2    1    4 1   
     3    1    5 1   
     4    1    6 1   
     5    2    3 2   
     6    2    7 1   
     7    7    8 1   
     8    7   15 1   
     9    8    9 1   
    10    8   11 1   
    11    8   16 1   
    12    9   10 2   
    13    9   19 1   
    14   11   12 1   
    15   11   17 1   
    16   11   18 1   
    17   12   13 1   
    18   12   14 1   
    19   19   20 1   
    20   19   28 1   
    21   20   21 1   
    22   20   23 1   
    23   20   29 1   
    24   21   22 2   
    25   21   41 1   
    26   23   24 1   
    27   23   30 1   
    28   23   31 1   
    29   24   25 1   
    30   24   32 1   
    31   24   33 1   
    32   25   26 1   
    33   25   34 1   
    34   25   35 1   
    35   26   27 1   
    36   26   36 1   
    37   26   37 1   
    38   27   38 1   
    39   27   39 1   
    40   27   40 1   
    41   41   42 1   
    42   41   49 1   
    43   42   43 1   
    44   42   45 1   
    45   42   50 1   
    46   43   44 2   
    47   43   53 1   
    48   45   46 1   
    49   45   51 1   
    50   45   52 1   
    51   46   47 1   
    52   46   48 1   
    53   53   54 1   
    54   53   57 1   
    55   54   55 1   
    56   54   58 1   
    57   54   59 1   
    58   55   56 2   
    59   55   60 1   
    60   60   61 1   
    61   60   68 1   
    62   61   62 1   
    63   61   64 1   
    64   61   69 1   
    65   62   63 2   
    66   62   74 1   
    67   64   65 1   
    68   64   70 1   
    69   64   71 1   
    70   65   66 1   
    71   65   67 2   
    72   66   72 1   
    73   66   73 1   
    74   74   75 1   
    75   74   78 1   
    76   75   76 1   
    77   75   79 1   
    78   75   80 1   
    79   76   77 2   
    80   76   81 1   
    81   81   82 1   
    82   81   93 1   
    83   82   83 1   
    84   82   85 1   
    85   82   94 1   
    86   83   84 2   
    87   83  102 1   
    88   85   86 1   
    89   85   95 1   
    90   85   96 1   
    91   86   87 ar  
    92   86   88 ar  
    93   87   89 ar  
    94   87   97 1   
    95   88   90 ar  
    96   88   98 1   
    97   89   91 ar  
    98   89   99 1   
    99   90   91 ar  
   100   90  100 1   
   101   91   92 1   
   102   92  101 1   
   103  102  103 1   
   104  102  110 1   
   105  103  104 1   
   106  103  106 1   
   107  103  111 1   
   108  104  105 2   
   109  104  121 1   
   110  106  107 1   
   111  106  108 1   
   112  106  112 1   
   113  107  109 1   
   114  107  113 1   
   115  107  114 1   
   116  108  115 1   
   117  108  116 1   
   118  108  117 1   
   119  109  118 1   
   120  109  119 1   
   121  109  120 1   
   122  121  122 1   
   123  121  127 1   
   124  122  123 1   
   125  122  125 1   
   126  122  128 1   
   127  123  124 2   
   128  123  132 1   
   129  125  126 1   
   130  125  129 1   
   131  125  130 1   
   132  126  131 1   
   133  132  133 1   
   134  132  137 1   
   135  133  134 1   
   136  133  136 1   
   137  133  138 1   
   138  134  135 2   
   139  134  142 1   
   140  136  139 1   
   141  136  140 1   
   142  136  141 1   
   143  142  143 1   
   144  142  147 1   
   145  143  144 1   
   146  143  146 1   
   147  143  148 1   
   148  144  145 2   
   149  144  152 1   
   150  146  149 1   
   151  146  150 1   
   152  146  151 1   
   153  152  153 1   
   154  152  161 1   
   155  153  154 1   
   156  153  156 1   
   157  153  162 1   
   158  154  155 2   
   159  154  167 1   
   160  156  157 1   
   161  156  163 1   
   162  156  164 1   
   163  157  158 1   
   164  157  165 1   
   165  157  166 1   
   166  158  159 1   
   167  158  160 1   
   168  167  168 1   
   169  167  172 1   
   170  168  169 1   
   171  168  170 1   
   172  168  171 1   
   173  174  175 1   
   174  174  176 1   
   175  177  178 1   
   176  177  179 1   
   177  180  181 1   
   178  180  182 1   
   179  183  184 1   
   180  183  185 1   
   181  186  187 1   
   182  186  188 1   
@<TRIPOS>SUBSTRUCTURE
     1 MOL         1 TEMP              0 ****  ****    0 ROOT
