@<TRIPOS>MOLECULE
MOL
  181   177     1     0     0
SMALL
resp


@<TRIPOS>ATOM
      1 C1         -9.8580   -5.6000   -3.4550 c3        1 MOL     -0.300445
      2 C2         -8.8430   -4.8840   -2.6130 c         1 MOL      0.615396
      3 O1         -7.9700   -5.5640   -2.0330 o         1 MOL     -0.620200
      4 H1        -10.6690   -5.9560   -2.8200 hc        1 MOL      0.077969
      5 H2        -10.2580   -4.9160   -4.2040 hc        1 MOL      0.077969
      6 H3         -9.3870   -6.4480   -3.9510 hc        1 MOL      0.077969
      7 N1         -8.5630   -3.6060   -2.4850 n         1 MOL     -0.385877
      8 C3         -9.2580   -2.4530   -3.0650 c3        1 MOL      0.090899
      9 C4        -10.0430   -1.6140   -1.9770 c         1 MOL      0.377734
     10 O2        -10.7270   -0.6060   -2.2590 o         1 MOL     -0.529122
     11 C5         -8.2280   -1.6080   -3.8220 c3        1 MOL     -0.167141
     12 C6         -7.0740   -0.9900   -3.0590 c         1 MOL      0.828384
     13 O3         -6.7630   -1.3850   -1.9090 o         1 MOL     -0.787679
     14 O4         -6.3600   -0.1380   -3.5900 o         1 MOL     -0.787679
     15 H4         -7.7080   -3.4120   -1.9790 hn        1 MOL      0.295722
     16 H5         -9.9700   -2.8040   -3.8240 h1        1 MOL      0.065432
     17 H6         -8.8060   -0.8710   -4.3780 hc        1 MOL      0.033728
     18 H7         -7.7950   -2.2630   -4.5670 hc        1 MOL      0.033728
     19 N2        -10.0150   -2.0450   -0.7050 n         1 MOL     -0.389927
     20 C7        -10.8100   -1.4290    0.4130 c3        1 MOL      0.241219
     21 C8        -10.2460   -0.1230    1.0400 c         1 MOL      0.302638
     22 O5        -10.7370    0.3580    2.0610 o         1 MOL     -0.509757
     23 C9        -11.0440   -2.6860    1.2860 c3        1 MOL     -0.317995
     24 H8         -9.4450   -2.7990   -0.3550 hn        1 MOL      0.237939
     25 H9        -11.7750   -1.1220    0.0010 h1        1 MOL      0.036581
     26 H10       -11.4410   -3.5340    0.7270 hc        1 MOL      0.093148
     27 H11       -10.1360   -3.0350    1.7740 hc        1 MOL      0.093148
     28 H12       -11.7040   -2.4460    2.1180 hc        1 MOL      0.093148
     29 N3         -9.0690    0.3420    0.5370 n         1 MOL     -0.093644
     30 C10        -8.4260    1.5180    1.1230 c3        1 MOL      0.080360
     31 C11        -7.6640    2.2920   -0.0180 c         1 MOL      0.205798
     32 O6         -7.2960    1.8080   -1.1040 o         1 MOL     -0.424040
     33 C12        -7.3890    1.1580    2.2250 c3        1 MOL     -0.025151
     34 C13        -6.3530    0.0260    1.9310 c         1 MOL      0.627551
     35 O7         -5.8880   -0.1130    0.7430 o         1 MOL     -0.656327
     36 O8         -6.2180   -0.8920    2.7450 o         1 MOL     -0.656327
     37 H13        -8.7310   -0.0660   -0.3180 hn        1 MOL      0.175128
     38 H14        -9.1580    2.1340    1.6350 h1        1 MOL      0.028958
     39 H15        -8.0520    0.8410    3.0200 hc        1 MOL     -0.010098
     40 H16        -6.9020    2.1030    2.4600 hc        1 MOL     -0.010098
     41 N4         -7.2760    3.4970    0.3340 n         1 MOL     -0.120535
     42 C14        -6.3480    4.2720   -0.4300 c3        1 MOL     -0.376121
     43 C15        -4.8250    3.8810   -0.3640 c         1 MOL      0.778734
     44 O9         -4.4830    2.7340   -0.6590 o         1 MOL     -0.699787
     45 H17        -7.6140    3.9770    1.1530 hn        1 MOL      0.241095
     46 H18        -6.4780    5.3200   -0.1880 h1        1 MOL      0.137886
     47 H19        -6.7230    4.1950   -1.4420 h1        1 MOL      0.137886
     48 N5         -3.9550    4.7810    0.0830 n         1 MOL     -0.602055
     49 C16        -2.5170    4.6410   -0.0530 c3        1 MOL      0.080856
     50 C17        -2.0680    3.5620    0.9860 c         1 MOL      0.785802
     51 O10        -2.3850    3.6690    2.1280 o         1 MOL     -0.547418
     52 C18        -1.8740    5.9620    0.1640 c3        1 MOL     -0.331113
     53 C19        -1.9910    6.9430   -0.9250 c         1 MOL      0.737327
     54 N6         -0.9480    7.0050   -1.7320 n         1 MOL     -0.803696
     55 O11        -2.9300    7.7270   -1.0720 o         1 MOL     -0.595022
     56 H20        -4.2660    5.6250    0.5310 hn        1 MOL      0.338297
     57 H21        -2.2830    4.2090   -1.0390 h1        1 MOL      0.032905
     58 H22        -0.8080    5.8900    0.3700 hc        1 MOL      0.112630
     59 H23        -2.2100    6.3260    1.1330 hc        1 MOL      0.112630
     60 H24        -0.1300    6.4510   -1.5120 hn        1 MOL      0.372473
     61 H25        -0.8940    7.8060   -2.3350 hn        1 MOL      0.372473
     62 N7         -1.2490    2.6090    0.5970 n         1 MOL     -0.609943
     63 C20        -0.9460    1.4010    1.3650 c3        1 MOL      0.032678
     64 C21        -2.1750    0.5610    1.8080 c         1 MOL      0.281356
     65 O12        -3.1550    0.5030    1.1230 o         1 MOL     -0.435256
     66 H26        -1.0250    2.7080   -0.3770 hn        1 MOL      0.288512
     67 H27        -0.5470    1.5390    2.3670 h1        1 MOL      0.119939
     68 H28        -0.1880    0.8160    0.8480 h1        1 MOL      0.119939
     69 N8         -2.1890   -0.1390    2.9690 n         1 MOL     -0.110206
     70 C22        -1.2250   -0.1940    4.0730 c3        1 MOL     -0.174117
     71 C23         0.2470   -0.4250    3.6110 c         1 MOL      0.348495
     72 O13         1.1320    0.2130    4.1090 o         1 MOL     -0.487583
     73 C24        -1.7370   -1.2390    5.0960 c3        1 MOL      0.396649
     74 C25        -2.9800   -0.7990    5.7880 c3        1 MOL     -0.347892
     75 O14        -1.9030   -2.5070    4.5540 oh        1 MOL     -0.621024
     76 H29        -2.9890   -0.7300    3.1390 hn        1 MOL      0.148537
     77 H30        -1.1680    0.7380    4.6380 h1        1 MOL      0.088002
     78 H31        -0.9610   -1.3730    5.8490 h1        1 MOL      0.063963
     79 H32        -2.6240   -2.5600    3.9250 ho        1 MOL      0.400738
     80 H33        -2.8350   -0.0560    6.5670 hc        1 MOL      0.086008
     81 H34        -3.6980   -0.3730    5.0780 hc        1 MOL      0.086008
     82 H35        -3.4100   -1.6780    6.2570 hc        1 MOL      0.086008
     83 N9          0.4590   -1.3100    2.6410 n         1 MOL     -0.387257
     84 C26         1.8340   -1.6980    2.2770 c3        1 MOL      0.254834
     85 C27         1.9980   -1.6500    0.7040 c         1 MOL      0.421538
     86 O15         1.1170   -2.2330    0.0740 o         1 MOL     -0.566567
     87 C28         2.2750   -3.1000    2.7940 c3        1 MOL      0.162348
     88 C29         1.9300   -3.3160    4.3140 c3        1 MOL     -0.100340
     89 C30         3.7230   -3.3860    2.4860 c3        1 MOL     -0.368099
     90 C31         2.8730   -2.5940    5.2840 c3        1 MOL     -0.048535
     91 H36        -0.2600   -1.7980    2.1310 hn        1 MOL      0.183390
     92 H37         2.5940   -1.0990    2.7850 h1        1 MOL      0.121557
     93 H38         1.6500   -3.8670    2.3370 hc        1 MOL     -0.064585
     94 H39         2.1330   -4.3520    4.5810 hc        1 MOL      0.033548
     95 H40         0.8730   -3.2020    4.5240 hc        1 MOL      0.033548
     96 H41         3.6800   -3.6710    1.4330 hc        1 MOL      0.114235
     97 H42         4.3440   -2.5010    2.5990 hc        1 MOL      0.114235
     98 H43         4.0400   -4.1770    3.1600 hc        1 MOL      0.114235
     99 H44         3.1350   -1.6450    4.8090 hc        1 MOL      0.003962
    100 H45         2.3380   -2.3690    6.1970 hc        1 MOL      0.003962
    101 H46         3.7340   -3.1750    5.6190 hc        1 MOL      0.003962
    102 N10         2.9980   -1.0270    0.1820 n         1 MOL     -0.407974
    103 C32         4.0060   -0.2140    0.8590 c3        1 MOL      0.040943
    104 C33         5.2780   -0.1790    0.0430 c         1 MOL      0.540364
    105 O16         5.2060   -0.2780   -1.1970 o         1 MOL     -0.490192
    106 C34         3.5860    1.2470    1.3320 c3        1 MOL     -0.101198
    107 C35         2.8380    2.0550    0.2890 c         1 MOL      0.780967
    108 O17         2.3790    3.1080    0.6550 o         1 MOL     -0.748389
    109 O18         2.8860    1.7790   -0.9300 o         1 MOL     -0.748389
    110 H47         2.9500   -0.9120   -0.8130 hn        1 MOL      0.291745
    111 H48         4.3490   -0.7240    1.7600 h1        1 MOL      0.067817
    112 H49         4.5160    1.7250    1.6320 hc        1 MOL     -0.019405
    113 H50         2.9100    1.1370    2.1790 hc        1 MOL     -0.019405
    114 N11         6.4310    0.1780    0.6630 n         1 MOL     -0.830408
    115 C36         7.5060    0.8180   -0.0640 c3        1 MOL      0.857072
    116 C37         8.7980    0.2700    0.5760 c         1 MOL      0.023039
    117 O19         8.8030    0.3200    1.8210 o         1 MOL     -0.455357
    118 C38         7.4270    2.3240    0.0390 c3        1 MOL     -0.421391
    119 C39         8.6330    3.0940   -0.4270 ca        1 MOL      0.129103
    120 C40         9.4960    3.7020    0.6180 ca        1 MOL     -0.179638
    121 C41         8.7900    3.3380   -1.8280 ca        1 MOL     -0.179638
    122 C42        10.5440    4.5960    0.1650 ca        1 MOL     -0.091389
    123 C43         9.8650    4.1980   -2.2070 ca        1 MOL     -0.091389
    124 C44        10.6930    4.8710   -1.2090 ca        1 MOL     -0.194514
    125 H51         6.5630    0.1900    1.6680 hn        1 MOL      0.369856
    126 H52         7.4060    0.5420   -1.1120 h1        1 MOL     -0.120059
    127 H53         7.2580    2.5130    1.1060 hc        1 MOL      0.145956
    128 H54         6.6360    2.6090   -0.6430 hc        1 MOL      0.145956
    129 H55         9.2760    3.4970    1.6530 ha        1 MOL      0.147570
    130 H56         8.1540    2.9190   -2.5850 ha        1 MOL      0.147570
    131 H57        11.2380    4.9090    0.9280 ha        1 MOL      0.100732
    132 H58         9.9610    4.5510   -3.2260 ha        1 MOL      0.100732
    133 H59        11.5260    5.4380   -1.6100 ha        1 MOL      0.112981
    134 N12         9.9140    0.0360   -0.2110 n         1 MOL      0.104669
    135 C45         9.9270    0.0700   -1.6950 c3        1 MOL      0.173308
    136 C46         9.1010   -1.0240   -2.2750 c         1 MOL      0.467573
    137 O20         8.4800   -0.7510   -3.2760 o         1 MOL     -0.559463
    138 C47        11.4750    0.0380   -2.0420 c3        1 MOL     -0.148077
    139 C48        12.1320    0.6570   -0.8290 c3        1 MOL      0.056959
    140 C49        11.2880    0.0230    0.3040 c3        1 MOL     -0.052081
    141 H60         9.5260    0.9820   -2.1260 h1        1 MOL     -0.020392
    142 H61        11.7500   -1.0180   -2.0900 hc        1 MOL      0.030904
    143 H62        11.7500    0.6510   -2.8990 hc        1 MOL      0.030904
    144 H63        13.1580    0.3270   -0.6500 hc        1 MOL     -0.004860
    145 H64        12.0610    1.7450   -0.7670 hc        1 MOL     -0.004860
    146 H65        11.6050   -1.0240    0.4080 h1        1 MOL      0.039507
    147 H66        11.4950    0.5860    1.2170 h1        1 MOL      0.039507
    148 N13         8.9600   -2.1700   -1.6420 n         1 MOL     -0.490968
    149 C50         7.8320   -3.0980   -1.8850 c3        1 MOL      0.484316
    150 C51         8.0000   -3.9560   -3.1530 c         1 MOL      0.321343
    151 O21         8.8780   -4.8370   -3.0820 o         1 MOL     -0.573675
    152 C52         7.4560   -4.0360   -0.6660 c3        1 MOL     -0.097110
    153 C53         6.9630   -3.2910    0.5910 c3        1 MOL     -0.006720
    154 C54         7.0490   -4.0080    1.9060 c         1 MOL      0.717797
    155 O22         6.8430   -5.2460    1.8920 o         1 MOL     -0.742579
    156 O23         7.4430   -3.4110    2.9260 o         1 MOL     -0.742579
    157 H67         9.5200   -2.4160   -0.8360 hn        1 MOL      0.260117
    158 H68         6.9290   -2.5390   -2.0880 h1        1 MOL     -0.025708
    159 H69         8.3920   -4.5480   -0.4350 hc        1 MOL      0.008542
    160 H70         6.7370   -4.7910   -0.9930 hc        1 MOL      0.008542
    161 H71         5.9160   -3.0680    0.4330 hc        1 MOL     -0.051619
    162 H72         7.5670   -2.3890    0.6880 hc        1 MOL     -0.051619
    163 N14         7.3910   -3.6710   -4.3160 n         1 MOL     -0.315864
    164 C55         6.3980   -2.6230   -4.7560 c3        1 MOL     -0.197493
    165 H73         6.9000   -1.6580   -4.8340 h1        1 MOL      0.103715
    166 H74         5.9850   -2.8980   -5.7260 h1        1 MOL      0.103715
    167 H75         5.5930   -2.5550   -4.0230 h1        1 MOL      0.103715
    168 H76         7.8340   -4.2480   -5.0160 hn        1 MOL      0.257076
    169 Ca1        -4.7090    0.3390   -1.4620 Ca        1 MOL      1.775469
    170 O24        -2.0280    0.4990   -1.7180 oh        1 MOL     -0.781868
    171 H77        -1.4740    1.2700   -1.7050 ho        1 MOL      0.393341
    172 H78        -1.4220   -0.2280   -1.8960 ho        1 MOL      0.393341
    173 O25        -3.8640   -2.0800   -0.1660 oh        1 MOL     -0.781868
    174 H79        -3.0790   -2.5880    0.0340 ho        1 MOL      0.393341
    175 H80        -4.2180   -1.8340    0.6990 ho        1 MOL      0.393341
    176 O26        -4.0060    2.2670   -3.3810 oh        1 MOL     -0.781868
    177 H81        -3.1140    2.3710   -3.7220 ho        1 MOL      0.393341
    178 H82        -4.3310    3.1740   -3.2870 ho        1 MOL      0.393341
    179 O27        -3.7740   -1.3100   -3.3700 oh        1 MOL     -0.781868
    180 H83        -3.1940   -2.0750   -3.4010 ho        1 MOL      0.393341
    181 H84        -3.8310   -1.0250   -4.2800 ho        1 MOL      0.393341
@<TRIPOS>BOND
     1    1    2 1   
     2    1    4 1   
     3    1    5 1   
     4    1    6 1   
     5    2    3 2   
     6    2    7 1   
     7    7    8 1   
     8    7   15 1   
     9    8    9 1   
    10    8   11 1   
    11    8   16 1   
    12    9   10 2   
    13    9   19 1   
    14   11   12 1   
    15   11   17 1   
    16   11   18 1   
    17   12   13 1   
    18   12   14 1   
    19   19   20 1   
    20   19   24 1   
    21   20   21 1   
    22   20   23 1   
    23   20   25 1   
    24   21   22 2   
    25   21   29 1   
    26   23   26 1   
    27   23   27 1   
    28   23   28 1   
    29   29   30 1   
    30   29   37 1   
    31   30   31 1   
    32   30   33 1   
    33   30   38 1   
    34   31   32 2   
    35   31   41 1   
    36   33   34 1   
    37   33   39 1   
    38   33   40 1   
    39   34   35 1   
    40   34   36 1   
    41   41   42 1   
    42   41   45 1   
    43   42   43 1   
    44   42   46 1   
    45   42   47 1   
    46   43   44 2   
    47   43   48 1   
    48   48   49 1   
    49   48   56 1   
    50   49   50 1   
    51   49   52 1   
    52   49   57 1   
    53   50   51 2   
    54   50   62 1   
    55   52   53 1   
    56   52   58 1   
    57   52   59 1   
    58   53   54 1   
    59   53   55 2   
    60   54   60 1   
    61   54   61 1   
    62   62   63 1   
    63   62   66 1   
    64   63   64 1   
    65   63   67 1   
    66   63   68 1   
    67   64   65 2   
    68   64   69 1   
    69   69   70 1   
    70   69   76 1   
    71   70   71 1   
    72   70   73 1   
    73   70   77 1   
    74   71   72 2   
    75   71   83 1   
    76   73   74 1   
    77   73   75 1   
    78   73   78 1   
    79   74   80 1   
    80   74   81 1   
    81   74   82 1   
    82   75   79 1   
    83   83   84 1   
    84   83   91 1   
    85   84   85 1   
    86   84   87 1   
    87   84   92 1   
    88   85   86 2   
    89   85  102 1   
    90   87   88 1   
    91   87   89 1   
    92   87   93 1   
    93   88   90 1   
    94   88   94 1   
    95   88   95 1   
    96   89   96 1   
    97   89   97 1   
    98   89   98 1   
    99   90   99 1   
   100   90  100 1   
   101   90  101 1   
   102  102  103 1   
   103  102  110 1   
   104  103  104 1   
   105  103  106 1   
   106  103  111 1   
   107  104  105 2   
   108  104  114 1   
   109  106  107 1   
   110  106  112 1   
   111  106  113 1   
   112  107  108 1   
   113  107  109 1   
   114  114  115 1   
   115  114  125 1   
   116  115  116 1   
   117  115  118 1   
   118  115  126 1   
   119  116  117 2   
   120  116  134 1   
   121  118  119 1   
   122  118  127 1   
   123  118  128 1   
   124  119  120 ar  
   125  119  121 ar  
   126  120  122 ar  
   127  120  129 1   
   128  121  123 ar  
   129  121  130 1   
   130  122  124 ar  
   131  122  131 1   
   132  123  124 ar  
   133  123  132 1   
   134  124  133 1   
   135  134  135 1   
   136  134  140 1   
   137  135  136 1   
   138  135  138 1   
   139  135  141 1   
   140  136  137 2   
   141  136  148 1   
   142  138  139 1   
   143  138  142 1   
   144  138  143 1   
   145  139  140 1   
   146  139  144 1   
   147  139  145 1   
   148  140  146 1   
   149  140  147 1   
   150  148  149 1   
   151  148  157 1   
   152  149  150 1   
   153  149  152 1   
   154  149  158 1   
   155  150  151 2   
   156  150  163 1   
   157  152  153 1   
   158  152  159 1   
   159  152  160 1   
   160  153  154 1   
   161  153  161 1   
   162  153  162 1   
   163  154  155 1   
   164  154  156 1   
   165  163  164 1   
   166  163  168 1   
   167  164  165 1   
   168  164  166 1   
   169  164  167 1   
   170  170  171 1   
   171  170  172 1   
   172  173  174 1   
   173  173  175 1   
   174  176  177 1   
   175  176  178 1   
   176  179  180 1   
   177  179  181 1   
@<TRIPOS>SUBSTRUCTURE
     1 MOL         1 TEMP              0 ****  ****    0 ROOT
