@<TRIPOS>MOLECULE
MOL
  181   177     1     0     0
SMALL
resp


@<TRIPOS>ATOM
      1 C1        -11.5750    6.3600    0.8970 c3        1 MOL     -0.281688
      2 C2        -11.1520    5.3540   -0.2110 c         1 MOL      0.782666
      3 O1        -11.1300    5.8000   -1.3580 o         1 MOL     -0.613659
      4 H1        -10.7050    6.9330    1.2190 hc        1 MOL      0.063300
      5 H2        -12.3310    7.0390    0.5020 hc        1 MOL      0.063300
      6 H3        -11.9850    5.8140    1.7470 hc        1 MOL      0.063300
      7 N1        -11.0560    4.0190   -0.0320 n         1 MOL     -0.667798
      8 C3        -11.1450    3.2020    1.1800 c3        1 MOL      0.212890
      9 C4        -11.5780    1.7330    0.8270 c         1 MOL      0.503778
     10 O2        -11.9460    1.4790   -0.3040 o         1 MOL     -0.446074
     11 C5         -9.7850    3.1290    1.9530 c3        1 MOL     -0.207805
     12 C6         -8.5180    2.5010    1.2710 c         1 MOL      0.823804
     13 O3         -8.2400    2.7600    0.1030 o         1 MOL     -0.757859
     14 O4         -7.8380    1.6680    1.8790 o         1 MOL     -0.757859
     15 H4        -10.7500    3.4620   -0.8170 hn        1 MOL      0.372448
     16 H5        -11.9440    3.5980    1.8050 h1        1 MOL      0.025428
     17 H6         -9.9270    2.5830    2.8840 hc        1 MOL     -0.003381
     18 H7         -9.4290    4.1160    2.2850 hc        1 MOL     -0.003381
     19 N2        -11.6380    0.8170    1.8400 n         1 MOL     -0.645080
     20 C7        -12.2360   -0.5200    1.6970 c3        1 MOL      0.107459
     21 C8        -11.7740   -1.4590    0.5840 c         1 MOL      0.469416
     22 O5        -12.4240   -2.3820    0.1160 o         1 MOL     -0.534411
     23 C9        -13.7880   -0.1990    1.8270 c3        1 MOL     -0.342226
     24 H8        -11.1700    1.1110    2.6820 hn        1 MOL      0.382757
     25 H9        -11.9990   -1.0080    2.6510 h1        1 MOL      0.062950
     26 H10       -14.4200   -1.0850    1.7670 hc        1 MOL      0.103358
     27 H11       -13.9540    0.3640    2.7390 hc        1 MOL      0.103358
     28 H12       -14.1330    0.3420    0.9500 hc        1 MOL      0.103358
     29 N3        -10.5490   -1.2760    0.1690 n         1 MOL     -0.229923
     30 C10        -9.7670   -2.2590   -0.5630 c3        1 MOL     -0.066128
     31 C11        -8.3980   -2.2780    0.0320 c         1 MOL      0.573390
     32 O6         -7.9420   -1.3120    0.7190 o         1 MOL     -0.654476
     33 C12        -9.6640   -1.7660   -2.0590 c3        1 MOL     -0.135797
     34 C13        -9.1540   -0.3680   -2.3500 c         1 MOL      0.695294
     35 O7         -9.4210    0.1140   -3.5350 o         1 MOL     -0.692365
     36 O8         -8.3330    0.1410   -1.5450 o         1 MOL     -0.692365
     37 H13       -10.1390   -0.3610    0.3250 hn        1 MOL      0.221284
     38 H14       -10.1880   -3.2600   -0.4150 h1        1 MOL      0.066180
     39 H15       -10.6790   -1.8080   -2.4570 hc        1 MOL      0.048692
     40 H16        -9.1510   -2.4710   -2.7150 hc        1 MOL      0.048692
     41 N4         -7.6150   -3.3100   -0.2930 n         1 MOL     -0.448152
     42 C14        -6.2740   -3.8430    0.1250 c3        1 MOL     -0.040776
     43 C15        -5.1310   -2.7620   -0.0460 c         1 MOL      0.608545
     44 O9         -5.3200   -1.7530   -0.7110 o         1 MOL     -0.524561
     45 H17        -8.0180   -3.9540   -0.9590 hn        1 MOL      0.283257
     46 H18        -5.9780   -4.8120   -0.2740 h1        1 MOL      0.072644
     47 H19        -6.3540   -4.0540    1.1970 h1        1 MOL      0.072644
     48 N5         -3.9140   -2.9370    0.4700 n         1 MOL     -0.616478
     49 C16        -3.0350   -1.8820    0.8220 c3        1 MOL      0.204798
     50 C17        -1.5060   -2.0710    0.4980 c         1 MOL      0.559984
     51 O10        -0.7750   -1.1130    0.4470 o         1 MOL     -0.429888
     52 C18        -3.1880   -1.4260    2.3150 c3        1 MOL     -0.460398
     53 C19        -4.5640   -0.8670    2.7720 c         1 MOL      0.863165
     54 N6         -4.9930   -1.4730    3.8400 n         1 MOL     -0.805160
     55 O11        -5.0570    0.0690    2.1750 o         1 MOL     -0.662708
     56 H20        -3.7670   -3.7870    0.9920 hn        1 MOL      0.272769
     57 H21        -3.2770   -0.9970    0.2530 h1        1 MOL      0.063314
     58 H22        -2.5060   -0.6060    2.5110 hc        1 MOL      0.117782
     59 H23        -2.9300   -2.2990    2.9030 hc        1 MOL      0.117782
     60 H24        -4.4350   -2.1790    4.3020 hn        1 MOL      0.373164
     61 H25        -5.9310   -1.3460    4.1700 hn        1 MOL      0.373164
     62 N7         -1.1410   -3.3790    0.3060 n         1 MOL     -0.630680
     63 C20         0.1980   -3.8280   -0.1410 c3        1 MOL      0.109300
     64 C21         0.5170   -3.5920   -1.5370 c         1 MOL      0.593288
     65 O12        -0.0770   -2.7940   -2.2160 o         1 MOL     -0.495002
     66 H26        -1.8050   -4.0590    0.6560 hn        1 MOL      0.335460
     67 H27         0.2630   -4.8650    0.2010 h1        1 MOL      0.089857
     68 H28         0.8780   -3.1690    0.3940 h1        1 MOL      0.089857
     69 N8          1.4690   -4.3460   -2.1900 n         1 MOL     -0.617910
     70 C22         2.3440   -5.3180   -1.5620 c3        1 MOL      0.021707
     71 C23         3.3850   -4.6510   -0.6020 c         1 MOL      0.084550
     72 O13         3.6920   -5.1590    0.4840 o         1 MOL     -0.464273
     73 C24         3.4250   -5.9790   -2.5640 c3        1 MOL      0.439232
     74 C25         2.7800   -7.2290   -3.1520 c3        1 MOL     -0.552140
     75 O14         3.8390   -5.1500   -3.6010 oh        1 MOL     -0.600706
     76 H29         1.7120   -4.0300   -3.1170 hn        1 MOL      0.355026
     77 H30         1.8050   -6.1220   -1.0790 h1        1 MOL      0.104331
     78 H31         4.2530   -6.3110   -1.9350 h1        1 MOL      0.014089
     79 H32         4.6700   -5.5100   -3.9040 ho        1 MOL      0.394940
     80 H33         1.8620   -6.9930   -3.7020 hc        1 MOL      0.128092
     81 H34         3.5110   -7.6350   -3.8490 hc        1 MOL      0.128092
     82 H35         2.5790   -7.8360   -2.2760 hc        1 MOL      0.128092
     83 N9          3.8850   -3.4230   -0.9050 n         1 MOL     -0.033281
     84 C26         4.8790   -2.6200   -0.1720 c3        1 MOL      0.031562
     85 C27         4.0790   -1.5790    0.7020 c         1 MOL      0.707435
     86 O15         2.9410   -1.3080    0.4610 o         1 MOL     -0.586604
     87 C28         5.8820   -1.9440   -1.0590 c3        1 MOL     -0.021495
     88 C29         5.3560   -0.9540   -2.1110 c3        1 MOL      0.115364
     89 C30         6.8100   -3.0430   -1.6090 c3        1 MOL     -0.191383
     90 C31         6.4700   -0.1540   -2.8510 c3        1 MOL     -0.393302
     91 H36         3.4230   -2.9680   -1.6780 hn        1 MOL      0.201765
     92 H37         5.3160   -3.3010    0.5620 h1        1 MOL      0.093838
     93 H38         6.5210   -1.2970   -0.4610 hc        1 MOL      0.064556
     94 H39         4.6340   -0.2730   -1.6470 hc        1 MOL     -0.000265
     95 H40         4.7950   -1.5820   -2.8090 hc        1 MOL     -0.000265
     96 H41         7.1100   -3.7950   -0.8870 hc        1 MOL      0.022252
     97 H42         6.3120   -3.4570   -2.4810 hc        1 MOL      0.022252
     98 H43         7.6980   -2.5020   -1.9340 hc        1 MOL      0.022252
     99 H44         5.9980    0.4190   -3.6520 hc        1 MOL      0.100044
    100 H45         7.0860    0.4220   -2.1660 hc        1 MOL      0.100044
    101 H46         7.0720   -0.7730   -3.5150 hc        1 MOL      0.100044
    102 N10         4.5470   -1.1120    1.8460 n         1 MOL     -0.641474
    103 C32         5.8710   -1.4320    2.4820 c3        1 MOL      0.128682
    104 C33         6.8930   -0.3790    2.1410 c         1 MOL      0.487758
    105 O16         6.5120    0.7970    1.8820 o         1 MOL     -0.519937
    106 C34         5.6060   -1.3100    4.0000 c3        1 MOL     -0.070107
    107 C35         4.7090   -2.3850    4.6130 c         1 MOL      0.639245
    108 O17         4.6830   -2.3710    5.8430 o         1 MOL     -0.704047
    109 O18         4.1310   -3.2100    3.8320 o         1 MOL     -0.704047
    110 H47         3.9000   -0.5410    2.3720 hn        1 MOL      0.354216
    111 H48         6.2580   -2.4120    2.1990 h1        1 MOL      0.029945
    112 H49         5.2160   -0.3250    4.2400 hc        1 MOL      0.006939
    113 H50         6.5430   -1.2420    4.5400 hc        1 MOL      0.006939
    114 N11         8.2160   -0.7070    2.2090 n         1 MOL     -0.625982
    115 C36         9.2730    0.1470    1.7210 c3        1 MOL      0.557504
    116 C37         9.3350   -0.0930    0.1730 c         1 MOL      0.176574
    117 O19         9.2970   -1.2230   -0.3150 o         1 MOL     -0.489338
    118 C38        10.4920   -0.1460    2.3650 c3        1 MOL     -0.407124
    119 C39        11.6930    0.7310    2.0930 ca        1 MOL      0.184471
    120 C40        12.6040    0.4670    1.0350 ca        1 MOL     -0.196426
    121 C41        11.7770    1.8790    2.8300 ca        1 MOL     -0.196426
    122 C42        13.6310    1.4040    0.8070 ca        1 MOL     -0.124387
    123 C43        12.8610    2.7900    2.5730 ca        1 MOL     -0.124387
    124 C44        13.7560    2.5570    1.5380 ca        1 MOL     -0.108009
    125 H51         8.3710   -1.6650    2.4840 hn        1 MOL      0.304958
    126 H52         8.9650    1.1830    1.8890 h1        1 MOL      0.013294
    127 H53        10.7930   -1.1810    2.1820 hc        1 MOL      0.098639
    128 H54        10.2580    0.0890    3.3970 hc        1 MOL      0.098639
    129 H55        12.5310   -0.4470    0.4650 ha        1 MOL      0.142382
    130 H56        11.0090    2.1370    3.5420 ha        1 MOL      0.142382
    131 H57        14.1750    1.2890   -0.1100 ha        1 MOL      0.110933
    132 H58        12.8860    3.6190    3.2600 ha        1 MOL      0.110933
    133 H59        14.5440    3.2880    1.3910 ha        1 MOL      0.100729
    134 N12         9.5110    0.9580   -0.6120 n         1 MOL      0.066891
    135 C45         9.7190    2.3430   -0.2300 c3        1 MOL      0.028283
    136 C46         8.4000    3.1280   -0.0340 c         1 MOL      0.267930
    137 O20         8.1580    3.9190    0.9060 o         1 MOL     -0.504495
    138 C47        10.4940    2.8650   -1.4550 c3        1 MOL      0.031384
    139 C48        10.2390    1.9920   -2.6670 c3        1 MOL     -0.119036
    140 C49         9.9350    0.6860   -1.9570 c3        1 MOL     -0.079108
    141 H60        10.3150    2.4720    0.6740 h1        1 MOL      0.041712
    142 H61        10.4010    3.9230   -1.7040 hc        1 MOL      0.006428
    143 H62        11.5390    2.7260   -1.1810 hc        1 MOL      0.006428
    144 H63         9.2980    2.3640   -3.0700 hc        1 MOL      0.048826
    145 H64        11.0170    1.9350   -3.4270 hc        1 MOL      0.048826
    146 H65         9.2500   -0.0070   -2.4540 h1        1 MOL      0.057539
    147 H66        10.8310    0.0770   -1.8800 h1        1 MOL      0.057539
    148 N13         7.4680    2.8420   -0.9550 n         1 MOL     -0.259099
    149 C50         6.1520    3.6190   -1.0570 c3        1 MOL      0.055380
    150 C51         6.3260    4.9980   -1.6840 c         1 MOL      0.378131
    151 O21         6.2290    5.2030   -2.9020 o         1 MOL     -0.538730
    152 C52         5.1640    2.7700   -1.8180 c3        1 MOL      0.093742
    153 C53         3.7930    3.3800   -2.0850 c3        1 MOL     -0.240000
    154 C54         2.9000    2.3930   -2.8860 c         1 MOL      0.772864
    155 O22         2.5960    2.6310   -4.0340 o         1 MOL     -0.725738
    156 O23         2.3910    1.3760   -2.3500 o         1 MOL     -0.725738
    157 H67         7.7180    2.2020   -1.6900 hn        1 MOL      0.263209
    158 H68         5.7540    3.7470   -0.0550 h1        1 MOL      0.118116
    159 H69         5.0560    1.7780   -1.3690 hc        1 MOL     -0.022495
    160 H70         5.6370    2.5830   -2.7730 hc        1 MOL     -0.022495
    161 H71         3.9850    4.2850   -2.6410 hc        1 MOL      0.020583
    162 H72         3.3000    3.6540   -1.1490 hc        1 MOL      0.020583
    163 N14         6.5880    5.9920   -0.8810 n         1 MOL     -0.242604
    164 C55         6.4550    6.2640    0.6020 c3        1 MOL     -0.139428
    165 H73         5.7680    7.0960    0.7580 h1        1 MOL      0.081311
    166 H74         6.0680    5.3760    1.1020 h1        1 MOL      0.081311
    167 H75         7.4310    6.5180    1.0150 h1        1 MOL      0.081311
    168 H76         6.7670    6.8350   -1.4050 hn        1 MOL      0.222311
    169 Ca1        -6.2920    0.7520   -0.0520 Ca        1 MOL      1.787291
    170 O24        -5.1490    2.9650    1.1060 oh        1 MOL     -0.761518
    171 H77        -4.3470    3.4150    0.8320 ho        1 MOL      0.384238
    172 H78        -5.0490    2.8700    2.0520 ho        1 MOL      0.384238
    173 O25        -5.6320    0.3340   -2.9170 oh        1 MOL     -0.761518
    174 H79        -5.6760   -0.5750   -3.1910 ho        1 MOL      0.384238
    175 H80        -5.1040    0.7630   -3.5890 ho        1 MOL      0.384238
    176 O26        -3.6540    0.9480   -0.7530 oh        1 MOL     -0.761518
    177 H81        -3.3580    0.5900   -1.5900 ho        1 MOL      0.384238
    178 H82        -2.8730    1.3720   -0.3880 ho        1 MOL      0.384238
    179 O27        -6.2350    3.1210   -2.2550 oh        1 MOL     -0.761518
    180 H83        -6.4720    2.4160   -2.8650 ho        1 MOL      0.384238
    181 H84        -6.0970    3.8800   -2.8140 ho        1 MOL      0.384238
@<TRIPOS>BOND
     1    1    2 1   
     2    1    4 1   
     3    1    5 1   
     4    1    6 1   
     5    2    3 2   
     6    2    7 1   
     7    7    8 1   
     8    7   15 1   
     9    8    9 1   
    10    8   11 1   
    11    8   16 1   
    12    9   10 2   
    13    9   19 1   
    14   11   12 1   
    15   11   17 1   
    16   11   18 1   
    17   12   13 1   
    18   12   14 1   
    19   19   20 1   
    20   19   24 1   
    21   20   21 1   
    22   20   23 1   
    23   20   25 1   
    24   21   22 2   
    25   21   29 1   
    26   23   26 1   
    27   23   27 1   
    28   23   28 1   
    29   29   30 1   
    30   29   37 1   
    31   30   31 1   
    32   30   33 1   
    33   30   38 1   
    34   31   32 2   
    35   31   41 1   
    36   33   34 1   
    37   33   39 1   
    38   33   40 1   
    39   34   35 1   
    40   34   36 1   
    41   41   42 1   
    42   41   45 1   
    43   42   43 1   
    44   42   46 1   
    45   42   47 1   
    46   43   44 2   
    47   43   48 1   
    48   48   49 1   
    49   48   56 1   
    50   49   50 1   
    51   49   52 1   
    52   49   57 1   
    53   50   51 2   
    54   50   62 1   
    55   52   53 1   
    56   52   58 1   
    57   52   59 1   
    58   53   54 1   
    59   53   55 2   
    60   54   60 1   
    61   54   61 1   
    62   62   63 1   
    63   62   66 1   
    64   63   64 1   
    65   63   67 1   
    66   63   68 1   
    67   64   65 2   
    68   64   69 1   
    69   69   70 1   
    70   69   76 1   
    71   70   71 1   
    72   70   73 1   
    73   70   77 1   
    74   71   72 2   
    75   71   83 1   
    76   73   74 1   
    77   73   75 1   
    78   73   78 1   
    79   74   80 1   
    80   74   81 1   
    81   74   82 1   
    82   75   79 1   
    83   83   84 1   
    84   83   91 1   
    85   84   85 1   
    86   84   87 1   
    87   84   92 1   
    88   85   86 2   
    89   85  102 1   
    90   87   88 1   
    91   87   89 1   
    92   87   93 1   
    93   88   90 1   
    94   88   94 1   
    95   88   95 1   
    96   89   96 1   
    97   89   97 1   
    98   89   98 1   
    99   90   99 1   
   100   90  100 1   
   101   90  101 1   
   102  102  103 1   
   103  102  110 1   
   104  103  104 1   
   105  103  106 1   
   106  103  111 1   
   107  104  105 2   
   108  104  114 1   
   109  106  107 1   
   110  106  112 1   
   111  106  113 1   
   112  107  108 1   
   113  107  109 1   
   114  114  115 1   
   115  114  125 1   
   116  115  116 1   
   117  115  118 1   
   118  115  126 1   
   119  116  117 2   
   120  116  134 1   
   121  118  119 1   
   122  118  127 1   
   123  118  128 1   
   124  119  120 ar  
   125  119  121 ar  
   126  120  122 ar  
   127  120  129 1   
   128  121  123 ar  
   129  121  130 1   
   130  122  124 ar  
   131  122  131 1   
   132  123  124 ar  
   133  123  132 1   
   134  124  133 1   
   135  134  135 1   
   136  134  140 1   
   137  135  136 1   
   138  135  138 1   
   139  135  141 1   
   140  136  137 2   
   141  136  148 1   
   142  138  139 1   
   143  138  142 1   
   144  138  143 1   
   145  139  140 1   
   146  139  144 1   
   147  139  145 1   
   148  140  146 1   
   149  140  147 1   
   150  148  149 1   
   151  148  157 1   
   152  149  150 1   
   153  149  152 1   
   154  149  158 1   
   155  150  151 2   
   156  150  163 1   
   157  152  153 1   
   158  152  159 1   
   159  152  160 1   
   160  153  154 1   
   161  153  161 1   
   162  153  162 1   
   163  154  155 1   
   164  154  156 1   
   165  163  164 1   
   166  163  168 1   
   167  164  165 1   
   168  164  166 1   
   169  164  167 1   
   170  170  171 1   
   171  170  172 1   
   172  173  174 1   
   173  173  175 1   
   174  176  177 1   
   175  176  178 1   
   176  179  180 1   
   177  179  181 1   
@<TRIPOS>SUBSTRUCTURE
     1 MOL         1 TEMP              0 ****  ****    0 ROOT
