@<TRIPOS>MOLECULE
MOL
  184   179     1     0     0
SMALL
resp


@<TRIPOS>ATOM
      1 C1          1.9500   -2.9690    3.9400 c3        1 MOL     -0.364333
      2 C2          3.3600   -2.5590    3.6380 c         1 MOL      0.775556
      3 O1          3.5860   -1.5430    2.9910 o         1 MOL     -0.586873
      4 H1          1.9290   -3.5380    4.8700 hc        1 MOL      0.082068
      5 H2          1.3260   -2.0810    4.0440 hc        1 MOL      0.082068
      6 H3          1.5690   -3.5880    3.1270 hc        1 MOL      0.082068
      7 N1          4.3590   -3.3700    4.0700 n         1 MOL     -0.755360
      8 C3          5.8140   -3.0190    3.7970 c3        1 MOL      0.411872
      9 C4          6.1540   -3.0620    2.3470 c         1 MOL      0.554215
     10 O2          5.7120   -3.9880    1.6500 o         1 MOL     -0.613812
     11 C5          6.7210   -3.9310    4.6230 c3        1 MOL     -0.279782
     12 C6          8.2020   -3.4960    4.5740 c         1 MOL      0.723518
     13 O3          8.5960   -2.3730    4.8550 o         1 MOL     -0.732095
     14 O4          8.9990   -4.4210    4.1800 o         1 MOL     -0.732095
     15 H4          4.1770   -4.3070    4.4000 hn        1 MOL      0.319782
     16 H5          5.9230   -1.9910    4.1580 h1        1 MOL     -0.032116
     17 H6          6.6550   -4.9200    4.1880 hc        1 MOL      0.031499
     18 H7          6.4240   -3.9180    5.6710 hc        1 MOL      0.031499
     19 N2          7.0690   -2.1710    1.9260 n         1 MOL     -0.580545
     20 C7          7.6640   -2.2740    0.5820 c3        1 MOL      0.302003
     21 C8          6.9520   -1.3940   -0.4850 c         1 MOL      0.509161
     22 O5          5.8970   -0.8120   -0.1510 o         1 MOL     -0.549885
     23 C9          9.1600   -2.0180    0.7390 c3        1 MOL     -0.061621
     24 H8          7.4290   -1.4020    2.4740 hn        1 MOL      0.322611
     25 H9          7.5370   -3.3340    0.3630 h1        1 MOL      0.017253
     26 H10         9.6750   -2.2640   -0.1850 hc        1 MOL      0.022342
     27 H11         9.4190   -0.9840    0.9770 hc        1 MOL      0.022342
     28 H12         9.7110   -2.6420    1.4340 hc        1 MOL      0.022342
     29 N3          7.5530   -1.3350   -1.6260 n         1 MOL     -0.597721
     30 C10         7.0220   -0.6570   -2.8630 c3        1 MOL      0.305714
     31 C11         7.4080    0.7800   -3.1390 c         1 MOL      0.472301
     32 O6          8.4470    1.1790   -2.6870 o         1 MOL     -0.489275
     33 C12         7.2720   -1.5120   -4.1160 c3        1 MOL     -0.144566
     34 C13         8.7110   -1.8520   -4.4800 c         1 MOL      0.669203
     35 O7          8.9740   -1.9360   -5.7360 o         1 MOL     -0.701700
     36 O8          9.4840   -2.2390   -3.5610 o         1 MOL     -0.701700
     37 H13         8.4110   -1.8520   -1.7440 hn        1 MOL      0.293865
     38 H14         5.9380   -0.6030   -2.7570 h1        1 MOL     -0.041330
     39 H15         6.7830   -1.0450   -4.9760 hc        1 MOL     -0.010942
     40 H16         6.7110   -2.4220   -3.9000 hc        1 MOL     -0.010942
     41 N4          6.6860    1.4840   -4.0170 n         1 MOL     -0.415053
     42 C14         6.9140    2.9310   -4.4330 c3        1 MOL     -0.023283
     43 C15         5.7750    3.8740   -4.0750 c         1 MOL      0.589682
     44 O9          6.0060    5.0800   -3.9470 o         1 MOL     -0.582735
     45 H17         5.8000    1.0890   -4.2730 hn        1 MOL      0.259659
     46 H18         7.0150    2.9680   -5.5150 h1        1 MOL      0.072953
     47 H19         7.8390    3.2610   -3.9690 h1        1 MOL      0.072953
     48 N5          4.6090    3.3190   -3.7970 n         1 MOL     -0.413737
     49 C16         3.4470    3.9730   -3.1980 c3        1 MOL     -0.080119
     50 C17         3.6310    4.2740   -1.7200 c         1 MOL      0.664951
     51 O10         4.1530    3.4290   -1.0380 o         1 MOL     -0.512509
     52 C18         2.1220    3.1060   -3.5250 c3        1 MOL     -0.255632
     53 C19         0.7410    3.5670   -2.9690 c         1 MOL      0.624731
     54 N6          0.1650    2.7970   -2.1030 n         1 MOL     -0.747627
     55 O11         0.1990    4.5830   -3.3600 o         1 MOL     -0.566338
     56 H20         4.4840    2.3260   -3.8700 hn        1 MOL      0.239688
     57 H21         3.2800    4.9010   -3.7400 h1        1 MOL      0.094908
     58 H22         2.3670    2.0800   -3.2350 hc        1 MOL      0.095032
     59 H23         1.9650    2.9440   -4.5900 hc        1 MOL      0.095032
     60 H24         0.5930    1.9200   -1.8140 hn        1 MOL      0.375073
     61 H25        -0.6750    3.1320   -1.6430 hn        1 MOL      0.375073
     62 N7          3.2090    5.4450   -1.2790 n         1 MOL     -0.455939
     63 C20         2.9360    5.8070    0.1390 c3        1 MOL      0.038870
     64 C21         1.5160    6.0970    0.5070 c         1 MOL      0.599356
     65 O12         0.6800    6.2080   -0.3840 o         1 MOL     -0.488180
     66 H26         2.7940    6.0920   -1.9240 hn        1 MOL      0.280645
     67 H27         3.4970    6.7290    0.2690 h1        1 MOL      0.051287
     68 H28         3.3290    5.0420    0.8080 h1        1 MOL      0.051287
     69 N8          1.2580    6.3080    1.8370 n         1 MOL     -0.482041
     70 C22         0.0400    6.9120    2.4070 c3        1 MOL     -0.290577
     71 C23        -1.0520    5.9040    2.7040 c         1 MOL      0.573985
     72 O13        -2.1480    6.3360    2.9810 o         1 MOL     -0.572253
     73 C24         0.3580    7.8510    3.5290 c3        1 MOL      0.535520
     74 C25         0.8900    7.2060    4.7830 c3        1 MOL     -0.356074
     75 O14         1.2450    8.8160    3.1700 oh        1 MOL     -0.649176
     76 H29         2.1020    6.3050    2.3940 hn        1 MOL      0.251222
     77 H30        -0.4250    7.4830    1.6090 h1        1 MOL      0.162752
     78 H31        -0.5580    8.4080    3.6880 h1        1 MOL      0.026028
     79 H32         2.1030    8.4480    2.9390 ho        1 MOL      0.383834
     80 H33         0.0600    6.9160    5.4280 hc        1 MOL      0.085859
     81 H34         1.5140    6.3460    4.5280 hc        1 MOL      0.085859
     82 H35         1.5450    7.8940    5.3220 hc        1 MOL      0.085859
     83 N9         -0.7190    4.6330    2.6980 n         1 MOL     -0.327205
     84 C26        -1.6210    3.4860    2.6700 c3        1 MOL      0.029385
     85 C27        -1.3530    2.4690    1.5260 c         1 MOL      0.618611
     86 O15        -0.3850    2.5710    0.7490 o         1 MOL     -0.506865
     87 C28        -1.7730    2.7840    4.0590 c3        1 MOL      0.140747
     88 C29        -0.7550    1.6930    4.4360 c3        1 MOL      0.060029
     89 C30        -2.0160    3.7980    5.2220 c3        1 MOL     -0.450536
     90 C31         0.6350    2.3690    4.5110 c3        1 MOL      0.025205
     91 H36         0.2360    4.5080    2.3980 hn        1 MOL      0.200206
     92 H37        -2.6180    3.9120    2.5930 h1        1 MOL      0.073414
     93 H38        -2.7000    2.2300    3.9180 hc        1 MOL     -0.024581
     94 H39        -0.8750    0.8560    3.7540 hc        1 MOL     -0.015986
     95 H40        -1.0070    1.3860    5.4530 hc        1 MOL     -0.015986
     96 H41        -3.0020    4.2400    5.0580 hc        1 MOL      0.115965
     97 H42        -2.0190    3.2870    6.1850 hc        1 MOL      0.115965
     98 H43        -1.2980    4.6130    5.3450 hc        1 MOL      0.115965
     99 H44         0.6620    3.3480    4.9900 hc        1 MOL     -0.004080
    100 H45         1.2920    1.7670    5.1400 hc        1 MOL     -0.004080
    101 H46         1.0350    2.3920    3.4940 hc        1 MOL     -0.004080
    102 N10        -2.3840    1.6470    1.2940 n         1 MOL     -0.808972
    103 C32        -2.3870    0.4690    0.4010 c3        1 MOL      0.699379
    104 C33        -3.7160    0.2060   -0.3840 c         1 MOL      0.379191
    105 O16        -4.1410   -0.9440   -0.5830 o         1 MOL     -0.497722
    106 C34        -1.9710   -0.8080    1.2010 c3        1 MOL     -0.354472
    107 C35        -1.6780   -1.9680    0.2380 c         1 MOL      0.797023
    108 O17        -2.0460   -3.1220    0.4920 o         1 MOL     -0.741982
    109 O18        -1.1100   -1.7520   -0.8460 o         1 MOL     -0.741982
    110 H47        -3.2430    1.6900    1.8380 hn        1 MOL      0.323128
    111 H48        -1.6220    0.6660   -0.3540 h1        1 MOL     -0.111441
    112 H49        -2.7390   -1.1580    1.8990 hc        1 MOL      0.081040
    113 H50        -1.0310   -0.5850    1.7150 hc        1 MOL      0.081040
    114 N11        -4.4840    1.2600   -0.6590 n         1 MOL     -0.501058
    115 C36        -5.7090    1.1340   -1.3620 c3        1 MOL      0.334620
    116 C37        -6.7740    0.3080   -0.6960 c         1 MOL      0.172616
    117 O19        -6.8730    0.3910    0.4970 o         1 MOL     -0.429835
    118 C38        -6.1910    2.5040   -1.6670 c3        1 MOL     -0.292813
    119 C39        -7.6030    2.5750   -2.2990 ca        1 MOL      0.131274
    120 C40        -7.8370    2.3350   -3.6640 ca        1 MOL     -0.229765
    121 C41        -8.7170    2.6530   -1.4380 ca        1 MOL     -0.229765
    122 C42        -9.1700    2.2870   -4.1090 ca        1 MOL     -0.056861
    123 C43        -9.9980    2.7450   -1.8940 ca        1 MOL     -0.056861
    124 C44       -10.2080    2.6110   -3.2940 ca        1 MOL     -0.118010
    125 H51        -4.0280    2.1530   -0.5680 hn        1 MOL      0.276854
    126 H52        -5.4740    0.7040   -2.3300 h1        1 MOL      0.029199
    127 H53        -5.4280    2.9640   -2.2750 hc        1 MOL      0.106144
    128 H54        -6.3060    3.0360   -0.7230 hc        1 MOL      0.106144
    129 H55        -7.0210    2.1250   -4.3500 ha        1 MOL      0.151775
    130 H56        -8.5610    2.6660   -0.3720 ha        1 MOL      0.151775
    131 H57        -9.3810    2.0580   -5.1360 ha        1 MOL      0.096698
    132 H58       -10.7730    2.9820   -1.1680 ha        1 MOL      0.096698
    133 H59       -11.1330    2.8890   -3.7670 ha        1 MOL      0.091396
    134 N12        -7.5080   -0.6310   -1.4310 n         1 MOL     -0.014007
    135 C45        -8.5700   -1.5240   -0.9400 c3        1 MOL      0.125909
    136 C46        -8.1030   -2.5600    0.1530 c         1 MOL      0.165364
    137 O20        -8.9480   -2.9420    0.9820 o         1 MOL     -0.480631
    138 C47        -9.1050   -2.2130   -2.2130 c3        1 MOL     -0.008519
    139 C48        -8.6500   -1.4680   -3.4000 c3        1 MOL     -0.111141
    140 C49        -7.2650   -0.9660   -2.8720 c3        1 MOL     -0.017370
    141 H60        -9.3700   -0.8930   -0.5520 h1        1 MOL      0.056572
    142 H61        -8.6600   -3.1990   -2.3490 hc        1 MOL      0.023529
    143 H62       -10.2010   -2.2220   -2.1760 hc        1 MOL      0.023529
    144 H63        -8.3880   -2.1430   -4.2130 hc        1 MOL      0.041181
    145 H64        -9.3530   -0.6970   -3.7200 hc        1 MOL      0.041181
    146 H65        -6.5530   -1.7860   -2.9900 h1        1 MOL      0.030690
    147 H66        -6.9110   -0.1410   -3.4950 h1        1 MOL      0.030690
    148 N13        -6.8280   -3.0010    0.1910 n         1 MOL     -0.065325
    149 C50        -6.3700   -4.0070    1.1600 c3        1 MOL     -0.330498
    150 C51        -6.4190   -3.4980    2.6200 c         1 MOL      0.498149
    151 O21        -6.4300   -4.1800    3.6240 o         1 MOL     -0.537048
    152 C52        -4.9610   -4.5930    0.8710 c3        1 MOL      0.145483
    153 C53        -4.8170   -5.1980   -0.5250 c3        1 MOL     -0.105948
    154 C54        -3.3760   -5.4020   -0.9160 c         1 MOL      0.682387
    155 O22        -2.6580   -6.1070   -0.1920 o         1 MOL     -0.741828
    156 O23        -2.8990   -4.8120   -1.9200 o         1 MOL     -0.741828
    157 H67        -6.1110   -2.5460   -0.3670 hn        1 MOL      0.281439
    158 H68        -7.1350   -4.7840    1.1130 h1        1 MOL      0.147220
    159 H69        -4.8620   -5.4330    1.5560 hc        1 MOL      0.021270
    160 H70        -4.2470   -3.8110    1.1180 hc        1 MOL      0.021270
    161 H71        -5.3320   -4.5840   -1.2550 hc        1 MOL      0.000984
    162 H72        -5.2600   -6.1860   -0.4440 hc        1 MOL      0.000984
    163 N14        -6.4420   -2.1340    2.7870 n         1 MOL     -0.101850
    164 C55        -6.3060   -1.5270    4.1160 c3        1 MOL     -0.329967
    165 H73        -5.6650   -2.1530    4.7370 h1        1 MOL      0.116051
    166 H74        -5.8630   -0.5360    4.0210 h1        1 MOL      0.116051
    167 H75        -7.2890   -1.4430    4.5800 h1        1 MOL      0.116051
    168 H76        -6.4700   -1.6150    1.9230 hn        1 MOL      0.152325
    169 Ca1        -0.4780   -4.6420   -1.0560 Ca        1 MOL      1.789438
    170 O24         1.2910   -3.2530    0.4440 oh        1 MOL     -0.877210
    171 H77         1.9730   -3.7290    0.9170 ho        1 MOL      0.432030
    172 H78         1.7470   -2.5070    0.0520 ho        1 MOL      0.432030
    173 O25        -0.0230   -3.8580   -3.6010 oh        1 MOL     -0.877210
    174 H79         0.5710   -4.2570   -4.2430 ho        1 MOL      0.432030
    175 H80        -0.2930   -3.0360   -4.0010 ho        1 MOL      0.432030
    176 O26         2.1230   -5.1110   -1.7010 oh        1 MOL     -0.877210
    177 H81         2.5320   -5.6330   -2.4010 ho        1 MOL      0.432030
    178 H82         2.7880   -5.0860   -1.0100 ho        1 MOL      0.432030
    179 O27        -0.1750   -6.9410   -2.4210 oh        1 MOL     -0.877210
    180 H83        -0.6720   -7.7590   -2.4310 ho        1 MOL      0.432030
    181 H84         0.6530   -7.1530   -2.8470 ho        1 MOL      0.432030
    182 O28         0.4340   -6.2420    0.7630 oh        1 MOL     -0.877210
    183 H85         0.2560   -7.1770    0.8560 ho        1 MOL      0.432030
    184 H86         1.1880   -6.0810    1.3300 ho        1 MOL      0.432030
@<TRIPOS>BOND
     1    1    2 1   
     2    1    4 1   
     3    1    5 1   
     4    1    6 1   
     5    2    3 2   
     6    2    7 1   
     7    7    8 1   
     8    7   15 1   
     9    8    9 1   
    10    8   11 1   
    11    8   16 1   
    12    9   10 2   
    13    9   19 1   
    14   11   12 1   
    15   11   17 1   
    16   11   18 1   
    17   12   13 1   
    18   12   14 1   
    19   19   20 1   
    20   19   24 1   
    21   20   21 1   
    22   20   23 1   
    23   20   25 1   
    24   21   22 2   
    25   21   29 1   
    26   23   26 1   
    27   23   27 1   
    28   23   28 1   
    29   29   30 1   
    30   29   37 1   
    31   30   31 1   
    32   30   33 1   
    33   30   38 1   
    34   31   32 2   
    35   31   41 1   
    36   33   34 1   
    37   33   39 1   
    38   33   40 1   
    39   34   35 1   
    40   34   36 1   
    41   41   42 1   
    42   41   45 1   
    43   42   43 1   
    44   42   46 1   
    45   42   47 1   
    46   43   44 2   
    47   43   48 1   
    48   48   49 1   
    49   48   56 1   
    50   49   50 1   
    51   49   52 1   
    52   49   57 1   
    53   50   51 2   
    54   50   62 1   
    55   52   53 1   
    56   52   58 1   
    57   52   59 1   
    58   53   54 1   
    59   53   55 2   
    60   54   60 1   
    61   54   61 1   
    62   62   63 1   
    63   62   66 1   
    64   63   64 1   
    65   63   67 1   
    66   63   68 1   
    67   64   65 2   
    68   64   69 1   
    69   69   70 1   
    70   69   76 1   
    71   70   71 1   
    72   70   73 1   
    73   70   77 1   
    74   71   72 2   
    75   71   83 1   
    76   73   74 1   
    77   73   75 1   
    78   73   78 1   
    79   74   80 1   
    80   74   81 1   
    81   74   82 1   
    82   75   79 1   
    83   83   84 1   
    84   83   91 1   
    85   84   85 1   
    86   84   87 1   
    87   84   92 1   
    88   85   86 2   
    89   85  102 1   
    90   87   88 1   
    91   87   89 1   
    92   87   93 1   
    93   88   90 1   
    94   88   94 1   
    95   88   95 1   
    96   89   96 1   
    97   89   97 1   
    98   89   98 1   
    99   90   99 1   
   100   90  100 1   
   101   90  101 1   
   102  102  103 1   
   103  102  110 1   
   104  103  104 1   
   105  103  106 1   
   106  103  111 1   
   107  104  105 2   
   108  104  114 1   
   109  106  107 1   
   110  106  112 1   
   111  106  113 1   
   112  107  108 1   
   113  107  109 1   
   114  114  115 1   
   115  114  125 1   
   116  115  116 1   
   117  115  118 1   
   118  115  126 1   
   119  116  117 2   
   120  116  134 1   
   121  118  119 1   
   122  118  127 1   
   123  118  128 1   
   124  119  120 ar  
   125  119  121 ar  
   126  120  122 ar  
   127  120  129 1   
   128  121  123 ar  
   129  121  130 1   
   130  122  124 ar  
   131  122  131 1   
   132  123  124 ar  
   133  123  132 1   
   134  124  133 1   
   135  134  135 1   
   136  134  140 1   
   137  135  136 1   
   138  135  138 1   
   139  135  141 1   
   140  136  137 2   
   141  136  148 1   
   142  138  139 1   
   143  138  142 1   
   144  138  143 1   
   145  139  140 1   
   146  139  144 1   
   147  139  145 1   
   148  140  146 1   
   149  140  147 1   
   150  148  149 1   
   151  148  157 1   
   152  149  150 1   
   153  149  152 1   
   154  149  158 1   
   155  150  151 2   
   156  150  163 1   
   157  152  153 1   
   158  152  159 1   
   159  152  160 1   
   160  153  154 1   
   161  153  161 1   
   162  153  162 1   
   163  154  155 1   
   164  154  156 1   
   165  163  164 1   
   166  163  168 1   
   167  164  165 1   
   168  164  166 1   
   169  164  167 1   
   170  170  171 1   
   171  170  172 1   
   172  173  174 1   
   173  173  175 1   
   174  176  177 1   
   175  176  178 1   
   176  179  180 1   
   177  179  181 1   
   178  182  183 1   
   179  182  184 1   
@<TRIPOS>SUBSTRUCTURE
     1 MOL         1 TEMP              0 ****  ****    0 ROOT
