@<TRIPOS>MOLECULE
MOL
  189   185     1     0     0
SMALL
resp


@<TRIPOS>ATOM
      1 C1          3.6290    4.5750   -3.3720 c3        1 MOL     -0.292816
      2 C2          4.5300    3.7650   -2.4350 c         1 MOL      0.658212
      3 O1          4.0800    3.2970   -1.4190 o         1 MOL     -0.500122
      4 H1          3.8960    4.3610   -4.4080 hc        1 MOL      0.076147
      5 H2          2.5870    4.3020   -3.2020 hc        1 MOL      0.076147
      6 H3          3.7620    5.6400   -3.1760 hc        1 MOL      0.076147
      7 N1          5.8200    3.6090   -2.7980 n         1 MOL     -0.597378
      8 C3          6.8180    2.7760   -2.1780 c3        1 MOL      0.159809
      9 C4          6.3080    1.3560   -1.8560 c         1 MOL      0.599940
     10 O2          5.9250    1.0240   -0.7050 o         1 MOL     -0.727991
     11 C5          7.5690    3.4390   -1.1170 c3        1 MOL     -0.166018
     12 C6          6.7950    4.0810    0.0560 c         1 MOL      0.746008
     13 O3          6.2760    3.3820    0.9450 o         1 MOL     -0.721903
     14 O4          6.8470    5.3320    0.1820 o         1 MOL     -0.721903
     15 H4          6.1490    4.1390   -3.5860 hn        1 MOL      0.319109
     16 H5          7.4860    2.5680   -3.0170 h1        1 MOL      0.013533
     17 H6          8.1000    4.2560   -1.6170 hc        1 MOL      0.029829
     18 H7          8.3620    2.8040   -0.7420 hc        1 MOL      0.029829
     19 N2          5.9540    0.6680   -2.9410 n         1 MOL     -0.701077
     20 C7          5.3110   -0.7080   -3.0030 c3        1 MOL      0.392893
     21 C8          6.1790   -1.7970   -2.3550 c         1 MOL      0.251292
     22 O5          6.5940   -2.7280   -3.0300 o         1 MOL     -0.539812
     23 C9          3.8340   -0.7260   -2.5560 c3        1 MOL      0.204654
     24 C10         3.2320   -2.0970   -2.5940 c3        1 MOL     -0.233291
     25 C11         2.9980    0.2880   -3.3560 c3        1 MOL     -0.022853
     26 C12         2.9830   -2.7520   -3.9090 c3        1 MOL     -0.003259
     27 H8          6.0290    1.1840   -3.8080 hn        1 MOL      0.320595
     28 H9          5.2910   -0.9720   -4.0650 h1        1 MOL     -0.016823
     29 H10         3.8230   -0.4130   -1.5150 hc        1 MOL     -0.129466
     30 H11         2.2170   -2.0380   -2.1880 hc        1 MOL      0.066276
     31 H12         3.8680   -2.8240   -2.1020 hc        1 MOL      0.066276
     32 H13         3.4300    1.2740   -3.1520 hc        1 MOL     -0.018125
     33 H14         3.0910    0.0990   -4.4200 hc        1 MOL     -0.018125
     34 H15         1.9860    0.4240   -2.9920 hc        1 MOL     -0.018125
     35 H16         2.3260   -2.1910   -4.5600 hc        1 MOL     -0.005172
     36 H17         3.9240   -2.8400   -4.4600 hc        1 MOL     -0.005172
     37 H18         2.4710   -3.7000   -3.8050 hc        1 MOL     -0.005172
     38 N3          6.4660   -1.6640   -1.0470 n         1 MOL     -0.026818
     39 C13         7.2920   -2.5810   -0.3230 c3        1 MOL     -0.029474
     40 C14         6.8780   -4.0540   -0.2380 c         1 MOL      0.485419
     41 O6          7.6560   -4.9870   -0.3640 o         1 MOL     -0.513852
     42 C15         7.6840   -2.0050    1.0850 c3        1 MOL     -0.422306
     43 C16         8.5250   -3.0140    1.8970 c         1 MOL      0.750558
     44 O7          7.9900   -3.8670    2.6700 o         1 MOL     -0.721472
     45 O8          9.8120   -2.9540    1.7780 o         1 MOL     -0.721472
     46 H19         6.1260   -0.7890   -0.6640 hn        1 MOL      0.264125
     47 H20         8.2710   -2.5670   -0.8190 h1        1 MOL      0.069516
     48 H21         6.8080   -1.7010    1.6590 hc        1 MOL      0.096666
     49 H22         8.1910   -1.0390    0.9690 hc        1 MOL      0.096666
     50 N4          5.6200   -4.3800    0.1080 n         1 MOL     -0.401480
     51 C17         4.5830   -3.5650    0.7910 c3        1 MOL      0.230565
     52 C18         3.4330   -4.2890    1.3550 c         1 MOL      0.483489
     53 O9          3.2970   -5.5210    1.1510 o         1 MOL     -0.591989
     54 H23         5.4550   -5.3680    0.0770 hn        1 MOL      0.243531
     55 H24         4.2750   -2.7730    0.0960 h1        1 MOL      0.002398
     56 H25         5.0510   -3.0810    1.6430 h1        1 MOL      0.002398
     57 N5          2.5050   -3.7420    2.1350 n         1 MOL     -0.481613
     58 C19         2.3490   -2.3110    2.6380 c3        1 MOL      0.210519
     59 C20         2.5510   -1.2820    1.5010 c         1 MOL      0.238147
     60 O10         3.6360   -0.7050    1.2920 o         1 MOL     -0.483782
     61 C21         3.2430   -2.1460    3.8600 c3        1 MOL     -0.191028
     62 C22         2.8010   -0.9690    4.6590 c         1 MOL      0.741602
     63 O11         1.7110   -0.4550    4.4770 o         1 MOL     -0.728094
     64 O12         3.6560   -0.6010    5.5370 o         1 MOL     -0.728094
     65 H26         1.8050   -4.3970    2.4530 hn        1 MOL      0.289500
     66 H27         1.3250   -2.3680    3.0070 h1        1 MOL      0.035096
     67 H28         4.3000   -2.0430    3.6130 hc        1 MOL      0.065117
     68 H29         3.1740   -3.0430    4.4730 hc        1 MOL      0.065117
     69 N6          1.4920   -0.9860    0.6880 n         1 MOL     -0.127303
     70 C23         0.1120   -1.2960    0.9930 c3        1 MOL     -0.124109
     71 C24        -0.4170   -2.5800    0.3570 c         1 MOL      0.487205
     72 O13         0.2450   -3.1810   -0.4830 o         1 MOL     -0.522291
     73 H30         1.7230   -0.3870   -0.0960 hn        1 MOL      0.240082
     74 H31        -0.5380   -0.5560    0.5240 h1        1 MOL      0.079499
     75 H32        -0.1560   -1.1960    2.0390 h1        1 MOL      0.079499
     76 N7         -1.5690   -3.0760    0.6500 n         1 MOL     -0.348439
     77 C25        -2.0890   -4.3290    0.0390 c3        1 MOL      0.037049
     78 C26        -2.8480   -4.1670   -1.2450 c         1 MOL      0.548065
     79 O14        -3.0440   -5.2240   -1.8240 o         1 MOL     -0.580336
     80 C27        -2.7570   -5.1730    1.1470 c3        1 MOL     -0.049705
     81 C28        -3.9840   -4.5670    1.7870 c3        1 MOL     -0.127119
     82 C29        -5.1790   -4.3130    0.9190 c         1 MOL      0.523649
     83 N8         -6.0560   -5.2470    0.7000 n         1 MOL     -0.694455
     84 O15        -5.3270   -3.3210    0.2740 o         1 MOL     -0.579491
     85 H33        -2.1450   -2.5650    1.3080 hn        1 MOL      0.212148
     86 H34        -1.2020   -4.8830   -0.2440 h1        1 MOL      0.101555
     87 H35        -2.0630   -5.3490    1.9650 hc        1 MOL      0.039707
     88 H36        -2.9820   -6.1170    0.6440 hc        1 MOL      0.039707
     89 H37        -3.7130   -3.6820    2.3490 hc        1 MOL      0.052455
     90 H38        -4.3460   -5.2710    2.5510 hc        1 MOL      0.052455
     91 H39        -5.8940   -6.1720    1.0740 hn        1 MOL      0.339325
     92 H40        -6.7200   -5.0810   -0.0380 hn        1 MOL      0.339325
     93 N9         -3.2630   -3.0100   -1.6690 n         1 MOL     -0.145935
     94 C30        -3.7970   -2.6170   -2.9850 c3        1 MOL     -0.180408
     95 C31        -5.1450   -1.8570   -2.9750 c         1 MOL      0.380811
     96 O16        -5.5650   -1.3440   -4.0010 o         1 MOL     -0.543934
     97 C32        -2.8060   -1.7470   -3.7920 c3        1 MOL      0.110878
     98 C33        -1.4770   -2.3990   -3.9890 c3        1 MOL     -0.089918
     99 C34        -2.5100   -0.4300   -2.9730 c3        1 MOL     -0.089918
    100 H41        -3.2150   -2.3560   -0.8960 hn        1 MOL      0.158175
    101 H42        -4.0280   -3.5000   -3.5850 h1        1 MOL      0.129201
    102 H43        -3.1470   -1.3860   -4.7650 hc        1 MOL      0.019497
    103 H44        -0.7710   -1.7600   -4.5230 hc        1 MOL      0.022984
    104 H45        -1.0840   -2.8150   -3.0550 hc        1 MOL      0.022984
    105 H46        -1.5690   -3.2400   -4.6680 hc        1 MOL      0.022984
    106 H47        -1.8060    0.1830   -3.5460 hc        1 MOL      0.022984
    107 H48        -3.4520    0.1100   -2.8700 hc        1 MOL      0.022984
    108 H49        -2.1000   -0.7480   -2.0150 hc        1 MOL      0.022984
    109 N10        -5.9040   -1.7220   -1.8980 n         1 MOL     -0.126398
    110 C35        -7.3260   -1.2830   -1.8340 c3        1 MOL     -0.001763
    111 C36        -7.4790    0.1210   -1.3240 c         1 MOL      0.548654
    112 O17        -8.5420    0.7310   -1.2790 o         1 MOL     -0.561910
    113 C37        -8.1680   -2.3000   -1.0700 c3        1 MOL     -0.231166
    114 C38        -8.2230   -3.6870   -1.7080 c         1 MOL      0.604037
    115 N11        -8.5260   -3.7870   -2.9670 n         1 MOL     -0.736659
    116 O18        -8.0960   -4.7650   -1.0430 o         1 MOL     -0.545876
    117 H50        -5.5320   -2.0430   -1.0120 hn        1 MOL      0.241125
    118 H51        -7.7220   -1.2890   -2.8460 h1        1 MOL      0.045976
    119 H52        -9.1580   -1.8690   -0.9610 hc        1 MOL      0.093605
    120 H53        -7.7690   -2.4050   -0.0610 hc        1 MOL      0.093605
    121 H54        -8.2910   -3.0450   -3.6110 hn        1 MOL      0.366978
    122 H55        -8.9370   -4.6420   -3.3000 hn        1 MOL      0.366978
    123 N12        -6.4070    0.6660   -0.7940 n         1 MOL     -0.427941
    124 C39        -6.4130    1.8740   -0.0510 c3        1 MOL      0.312817
    125 C40        -5.0010    2.5650    0.0880 c         1 MOL      0.203852
    126 O19        -3.9500    1.9000    0.0900 o         1 MOL     -0.389243
    127 C41        -7.0010    1.5470    1.3530 c3        1 MOL     -0.300926
    128 C42        -6.2410    0.5690    2.2390 ca        1 MOL      0.154221
    129 C43        -5.0070    0.9340    2.7860 ca        1 MOL     -0.180835
    130 C44        -6.8150   -0.7170    2.5160 ca        1 MOL     -0.180835
    131 C45        -4.3370   -0.0080    3.6050 ca        1 MOL     -0.246264
    132 C46        -6.0920   -1.7230    3.2430 ca        1 MOL     -0.246264
    133 C47        -4.8120   -1.3270    3.7160 ca        1 MOL      0.351352
    134 O20        -4.1420   -2.1940    4.5420 oh        1 MOL     -0.590687
    135 H56        -5.6370    0.0210   -0.6830 hn        1 MOL      0.181146
    136 H57        -7.1070    2.5680   -0.5290 h1        1 MOL      0.023551
    137 H58        -8.0020    1.1910    1.1200 hc        1 MOL      0.090440
    138 H59        -7.0820    2.4950    1.8940 hc        1 MOL      0.090440
    139 H60        -4.5740    1.9200    2.6740 ha        1 MOL      0.133418
    140 H61        -7.7400   -1.0280    2.0610 ha        1 MOL      0.133418
    141 H62        -3.3560    0.2570    3.9770 ha        1 MOL      0.160124
    142 H63        -6.4120   -2.7490    3.3120 ha        1 MOL      0.160124
    143 H64        -3.3520   -1.7950    4.9300 ho        1 MOL      0.436818
    144 N13        -5.0210    3.8330    0.3360 n         1 MOL     -0.323844
    145 C48        -3.9700    4.7610    0.7620 c3        1 MOL     -0.067837
    146 C49        -2.5940    4.8270   -0.0670 c         1 MOL      0.307983
    147 O21        -1.8890    5.8550    0.0410 o         1 MOL     -0.490648
    148 C50        -3.6700    4.6290    2.2800 c3        1 MOL     -0.046735
    149 C51        -4.7960    5.2290    3.1920 c3        1 MOL     -0.033343
    150 C52        -4.2520    5.4950    4.6320 c         1 MOL      0.582908
    151 O22        -4.2010    4.5840    5.4820 o         1 MOL     -0.691921
    152 O23        -3.7250    6.6050    4.7840 o         1 MOL     -0.691921
    153 H65        -5.9620    4.2130    0.3970 hn        1 MOL      0.260972
    154 H66        -4.3740    5.7490    0.5800 h1        1 MOL      0.114320
    155 H67        -2.7570    5.1750    2.4960 hc        1 MOL      0.104861
    156 H68        -3.4480    3.6010    2.5720 hc        1 MOL      0.104861
    157 H69        -5.7290    4.6630    3.1780 hc        1 MOL     -0.040896
    158 H70        -5.0010    6.2240    2.8260 hc        1 MOL     -0.040896
    159 N14        -2.1920    3.8150   -0.8430 n         1 MOL     -0.026254
    160 C53        -1.1030    4.0260   -1.8290 c3        1 MOL     -0.599908
    161 C54        -1.4200    5.0670   -2.9250 c         1 MOL      0.557224
    162 O24        -0.5100    5.4280   -3.6850 o         1 MOL     -0.523666
    163 C55        -0.6420    2.6660   -2.3380 c3        1 MOL      0.055822
    164 C56        -0.3430    1.5470   -1.3270 c3        1 MOL     -0.068199
    165 C57         0.6030    1.9310   -0.1720 c         1 MOL      0.622392
    166 O25         0.1430    2.4730    0.8590 o         1 MOL     -0.659499
    167 O26         1.7980    1.6170   -0.1490 o         1 MOL     -0.659499
    168 H71        -2.7030    2.9480   -0.9000 hn        1 MOL      0.208796
    169 H72        -0.2550    4.2750   -1.1840 h1        1 MOL      0.321089
    170 H73         0.1820    2.7630   -3.0420 hc        1 MOL      0.038189
    171 H74        -1.4480    2.3010   -2.9670 hc        1 MOL      0.038189
    172 H75         0.0920    0.6970   -1.8540 hc        1 MOL      0.003182
    173 H76        -1.2850    1.4430   -0.7980 hc        1 MOL      0.003182
    174 N15        -2.7170    5.4260   -3.0760 n         1 MOL     -0.130574
    175 C58        -3.3620    6.2580   -4.0410 c3        1 MOL     -0.325454
    176 H77        -3.2720    5.8050   -5.0290 h1        1 MOL      0.114241
    177 H78        -4.4160    6.3610   -3.7860 h1        1 MOL      0.114241
    178 H79        -2.8910    7.2410   -4.0480 h1        1 MOL      0.114241
    179 H80        -3.3340    5.0660   -2.3590 hn        1 MOL      0.186167
    180 Ca1         4.0720    1.9180    1.0690 Ca        1 MOL      1.820567
    181 O27         5.1100    1.8540    3.5790 oh        1 MOL     -0.932147
    182 H81         5.3010    2.6830    4.0070 ho        1 MOL      0.440386
    183 H82         5.1090    1.2140    4.2870 ho        1 MOL      0.440386
    184 O28         3.1050    4.2420    1.5190 oh        1 MOL     -0.932147
    185 H83         3.5690    4.6430    2.2660 ho        1 MOL      0.440386
    186 H84         2.3920    4.8510    1.3280 ho        1 MOL      0.440386
    187 O29         2.2610    1.6500    3.0090 oh        1 MOL     -0.932147
    188 H85         2.0310    0.9100    3.5800 ho        1 MOL      0.440386
    189 H86         1.4780    2.2020    2.9970 ho        1 MOL      0.440386
@<TRIPOS>BOND
     1    1    2 1   
     2    1    4 1   
     3    1    5 1   
     4    1    6 1   
     5    2    3 2   
     6    2    7 1   
     7    7    8 1   
     8    7   15 1   
     9    8    9 1   
    10    8   11 1   
    11    8   16 1   
    12    9   10 2   
    13    9   19 1   
    14   11   12 1   
    15   11   17 1   
    16   11   18 1   
    17   12   13 1   
    18   12   14 1   
    19   19   20 1   
    20   19   27 1   
    21   20   21 1   
    22   20   23 1   
    23   20   28 1   
    24   21   22 2   
    25   21   38 1   
    26   23   24 1   
    27   23   25 1   
    28   23   29 1   
    29   24   26 1   
    30   24   30 1   
    31   24   31 1   
    32   25   32 1   
    33   25   33 1   
    34   25   34 1   
    35   26   35 1   
    36   26   36 1   
    37   26   37 1   
    38   38   39 1   
    39   38   46 1   
    40   39   40 1   
    41   39   42 1   
    42   39   47 1   
    43   40   41 2   
    44   40   50 1   
    45   42   43 1   
    46   42   48 1   
    47   42   49 1   
    48   43   44 1   
    49   43   45 1   
    50   50   51 1   
    51   50   54 1   
    52   51   52 1   
    53   51   55 1   
    54   51   56 1   
    55   52   53 2   
    56   52   57 1   
    57   57   58 1   
    58   57   65 1   
    59   58   59 1   
    60   58   61 1   
    61   58   66 1   
    62   59   60 2   
    63   59   69 1   
    64   61   62 1   
    65   61   67 1   
    66   61   68 1   
    67   62   63 1   
    68   62   64 1   
    69   69   70 1   
    70   69   73 1   
    71   70   71 1   
    72   70   74 1   
    73   70   75 1   
    74   71   72 2   
    75   71   76 1   
    76   76   77 1   
    77   76   85 1   
    78   77   78 1   
    79   77   80 1   
    80   77   86 1   
    81   78   79 2   
    82   78   93 1   
    83   80   81 1   
    84   80   87 1   
    85   80   88 1   
    86   81   82 1   
    87   81   89 1   
    88   81   90 1   
    89   82   83 1   
    90   82   84 2   
    91   83   91 1   
    92   83   92 1   
    93   93   94 1   
    94   93  100 1   
    95   94   95 1   
    96   94   97 1   
    97   94  101 1   
    98   95   96 2   
    99   95  109 1   
   100   97   98 1   
   101   97   99 1   
   102   97  102 1   
   103   98  103 1   
   104   98  104 1   
   105   98  105 1   
   106   99  106 1   
   107   99  107 1   
   108   99  108 1   
   109  109  110 1   
   110  109  117 1   
   111  110  111 1   
   112  110  113 1   
   113  110  118 1   
   114  111  112 2   
   115  111  123 1   
   116  113  114 1   
   117  113  119 1   
   118  113  120 1   
   119  114  115 1   
   120  114  116 2   
   121  115  121 1   
   122  115  122 1   
   123  123  124 1   
   124  123  135 1   
   125  124  125 1   
   126  124  127 1   
   127  124  136 1   
   128  125  126 2   
   129  125  144 1   
   130  127  128 1   
   131  127  137 1   
   132  127  138 1   
   133  128  129 ar  
   134  128  130 ar  
   135  129  131 ar  
   136  129  139 1   
   137  130  132 ar  
   138  130  140 1   
   139  131  133 ar  
   140  131  141 1   
   141  132  133 ar  
   142  132  142 1   
   143  133  134 1   
   144  134  143 1   
   145  144  145 1   
   146  144  153 1   
   147  145  146 1   
   148  145  148 1   
   149  145  154 1   
   150  146  147 2   
   151  146  159 1   
   152  148  149 1   
   153  148  155 1   
   154  148  156 1   
   155  149  150 1   
   156  149  157 1   
   157  149  158 1   
   158  150  151 1   
   159  150  152 1   
   160  159  160 1   
   161  159  168 1   
   162  160  161 1   
   163  160  163 1   
   164  160  169 1   
   165  161  162 2   
   166  161  174 1   
   167  163  164 1   
   168  163  170 1   
   169  163  171 1   
   170  164  165 1   
   171  164  172 1   
   172  164  173 1   
   173  165  166 1   
   174  165  167 1   
   175  174  175 1   
   176  174  179 1   
   177  175  176 1   
   178  175  177 1   
   179  175  178 1   
   180  181  182 1   
   181  181  183 1   
   182  184  185 1   
   183  184  186 1   
   184  187  188 1   
   185  187  189 1   
@<TRIPOS>SUBSTRUCTURE
     1 MOL         1 TEMP              0 ****  ****    0 ROOT
