@<TRIPOS>MOLECULE
MOL
  192   187     1     0     0
SMALL
resp


@<TRIPOS>ATOM
      1 C1          9.7140    0.8580    2.1440 c3        1 MOL     -0.556364
      2 C2          8.4510    0.4030    1.3270 c         1 MOL      0.755983
      3 O1          7.3560    0.7450    1.7600 o         1 MOL     -0.665899
      4 H1          9.9760    1.8790    1.8690 hc        1 MOL      0.144430
      5 H2          9.4920    0.8150    3.2100 hc        1 MOL      0.144430
      6 H3         10.5510    0.1950    1.9200 hc        1 MOL      0.144430
      7 N1          8.5380   -0.1530    0.1230 n         1 MOL     -0.427768
      8 C3          7.5110   -0.2630   -0.9230 c3        1 MOL     -0.030907
      9 C4          6.8290   -1.5770   -0.9150 c         1 MOL      0.437584
     10 O2          6.5720   -2.1920   -1.9560 o         1 MOL     -0.424771
     11 C5          8.0830    0.0240   -2.3450 c3        1 MOL     -0.132012
     12 C6          9.4120   -0.6610   -2.8220 c         1 MOL      0.652220
     13 O3          9.8230   -0.5240   -3.9780 o         1 MOL     -0.627583
     14 O4         10.0770   -1.4150   -1.9800 o         1 MOL     -0.627583
     15 H4          9.4480   -0.4230   -0.2260 hn        1 MOL      0.177562
     16 H5          6.7530    0.4840   -0.7140 h1        1 MOL      0.106795
     17 H6          8.0920    1.1120   -2.3910 hc        1 MOL      0.056295
     18 H7          7.3050   -0.1930   -3.0830 hc        1 MOL      0.056295
     19 N2          6.5920   -2.1220    0.3040 n         1 MOL     -0.329168
     20 C7          6.2100   -3.5320    0.4450 c3        1 MOL     -0.014440
     21 C8          4.7670   -3.9970    0.0530 c         1 MOL      0.494607
     22 O5          4.5530   -5.1230   -0.3970 o         1 MOL     -0.517696
     23 C9          6.4580   -3.8710    1.9650 c3        1 MOL      0.050253
     24 C10         7.9640   -3.7880    2.3200 c3        1 MOL     -0.060929
     25 C11         8.1720   -4.4490    3.6640 c3        1 MOL      0.214649
     26 C12         9.4530   -3.8360    4.2570 c3        1 MOL      0.059168
     27 N3          9.8630   -4.4730    5.5280 n4        1 MOL     -0.251380
     28 H8          6.9590   -1.6980    1.1510 hn        1 MOL      0.241238
     29 H9          6.8680   -4.1050   -0.2000 h1        1 MOL      0.102648
     30 H10         5.9650   -4.8140    2.2060 hc        1 MOL     -0.010235
     31 H11         5.8950   -3.1300    2.5280 hc        1 MOL     -0.010235
     32 H12         8.2520   -2.7320    2.3290 hc        1 MOL      0.022358
     33 H13         8.4700   -4.3930    1.5690 hc        1 MOL      0.022358
     34 H14         8.2240   -5.5240    3.5260 hc        1 MOL     -0.033327
     35 H15         7.3910   -4.2660    4.4050 hc        1 MOL     -0.033327
     36 H16         9.2090   -2.7950    4.4800 hx        1 MOL      0.035943
     37 H17        10.1790   -3.9410    3.4550 hx        1 MOL      0.035943
     38 H18        10.2190   -5.4020    5.3920 hn        1 MOL      0.260026
     39 H19        10.6540   -3.9580    5.8970 hn        1 MOL      0.260026
     40 H20         9.1270   -4.5790    6.2190 hn        1 MOL      0.260026
     41 N4          3.7470   -3.1190    0.2180 n         1 MOL     -0.453400
     42 C13         3.6990   -1.7670    0.7040 c3        1 MOL      0.314736
     43 C14         3.8420   -0.7220   -0.3510 c         1 MOL      0.242709
     44 O6          3.8260   -0.9380   -1.5200 o         1 MOL     -0.410766
     45 C15         2.3670   -1.5400    1.4760 c3        1 MOL     -0.393657
     46 C16         1.0770   -1.8440    0.6970 c         1 MOL      0.744899
     47 O7          0.7030   -1.1650   -0.3150 o         1 MOL     -0.682201
     48 O8          0.2530   -2.6650    1.1620 o         1 MOL     -0.682201
     49 H21         2.8490   -3.5010   -0.0580 hn        1 MOL      0.318942
     50 H22         4.5080   -1.5840    1.4140 h1        1 MOL     -0.020803
     51 H23         2.2870   -0.4670    1.6480 hc        1 MOL      0.096691
     52 H24         2.3980   -2.1300    2.3890 hc        1 MOL      0.096691
     53 N5          4.0830    0.5290    0.0480 n         1 MOL     -0.266028
     54 C17         4.3330    1.6920   -0.8660 c3        1 MOL      0.131191
     55 C18         3.0030    2.4080   -1.1610 c         1 MOL      0.489209
     56 O9          1.8740    1.9140   -0.8500 o         1 MOL     -0.610901
     57 H25         4.1650    0.7450    1.0380 hn        1 MOL      0.250159
     58 H26         4.9070    1.4330   -1.7570 h1        1 MOL      0.028382
     59 H27         4.9920    2.3690   -0.3140 h1        1 MOL      0.028382
     60 N6          3.1550    3.4700   -1.9500 n         1 MOL     -0.462999
     61 C19         2.1280    4.3100   -2.5110 c3        1 MOL      0.243447
     62 C20         2.6020    5.7220   -2.3660 c         1 MOL      0.475429
     63 O10         3.8480    5.9820   -2.3380 o         1 MOL     -0.552010
     64 C21         1.7680    4.0340   -3.9880 c3        1 MOL     -0.314559
     65 C22         1.1660    2.6420   -4.1510 c         1 MOL      0.675623
     66 O11         0.0650    2.3820   -3.5640 o         1 MOL     -0.653122
     67 O12         1.5700    1.8350   -5.0100 o         1 MOL     -0.653122
     68 H28         4.1000    3.7830   -2.1230 hn        1 MOL      0.284497
     69 H29         1.2460    4.1790   -1.8820 h1        1 MOL      0.045184
     70 H30         2.6140    4.3170   -4.6130 hc        1 MOL      0.094362
     71 H31         1.0390    4.8030   -4.2420 hc        1 MOL      0.094362
     72 N7          1.7740    6.7280   -2.1250 n         1 MOL     -0.460027
     73 C23         0.3030    6.6930   -2.1950 c3        1 MOL     -0.056702
     74 C24        -0.4260    6.3460   -0.9130 c         1 MOL      0.575581
     75 O13         0.0660    6.5240    0.2460 o         1 MOL     -0.522083
     76 H32         2.0870    7.6570   -1.8970 hn        1 MOL      0.333782
     77 H33         0.0260    5.8920   -2.8850 h1        1 MOL      0.073569
     78 H34         0.0980    7.7150   -2.5130 h1        1 MOL      0.073569
     79 N8         -1.6240    5.7810   -1.1060 n         1 MOL     -0.583117
     80 C25        -2.3040    5.2040    0.0210 c3        1 MOL      0.014729
     81 C26        -1.5950    3.9980    0.5560 c         1 MOL      0.883978
     82 O14        -1.0050    3.1610   -0.1580 o         1 MOL     -0.744699
     83 C27        -3.8150    4.7900   -0.2600 c3        1 MOL      0.155454
     84 C28        -4.5370    4.1460    0.9470 c3        1 MOL     -0.391767
     85 O15        -3.9360    3.7650   -1.2090 oh        1 MOL     -0.510164
     86 H35        -1.8840    5.5070   -2.0330 hn        1 MOL      0.332037
     87 H36        -2.4150    6.0640    0.6870 h1        1 MOL      0.088485
     88 H37        -4.4570    5.6030   -0.6000 h1        1 MOL      0.071022
     89 H38        -4.8470    3.8960   -1.4790 ho        1 MOL      0.388700
     90 H39        -4.1370    3.1890    1.2820 hc        1 MOL      0.092739
     91 H40        -4.6660    4.8390    1.7780 hc        1 MOL      0.092739
     92 H41        -5.5310    3.8620    0.5990 hc        1 MOL      0.092739
     93 N9         -1.5490    3.8860    1.8670 n         1 MOL     -0.531173
     94 C29        -0.8900    2.7720    2.6000 c3        1 MOL      0.088554
     95 C30        -1.4580    1.3940    2.1630 c         1 MOL      0.392235
     96 O16        -1.0040    0.8190    1.1480 o         1 MOL     -0.448553
     97 C31         0.6680    2.8840    2.6730 c3        1 MOL      0.497163
     98 C32         1.2420    4.2740    2.8700 c3        1 MOL     -0.468566
     99 C33         1.1360    1.9270    3.7680 c3        1 MOL     -0.541238
    100 C34         0.9420    4.9240    4.2200 c3        1 MOL      0.084680
    101 H42        -1.8230    4.6930    2.3960 hn        1 MOL      0.265315
    102 H43        -1.2310    2.8670    3.6280 h1        1 MOL     -0.000617
    103 H44         1.0780    2.3560    1.8100 hc        1 MOL     -0.124142
    104 H45         0.7770    4.8860    2.0950 hc        1 MOL      0.150293
    105 H46         2.3150    4.1320    2.7790 hc        1 MOL      0.150293
    106 H47         2.2140    2.0220    3.9130 hc        1 MOL      0.125468
    107 H48         0.6500    2.1650    4.7050 hc        1 MOL      0.125468
    108 H49         0.8660    0.9140    3.4930 hc        1 MOL      0.125468
    109 H50         1.4950    4.5110    5.0610 hc        1 MOL     -0.012810
    110 H51         1.0430    5.9990    4.1050 hc        1 MOL     -0.012810
    111 H52        -0.1210    4.7890    4.4390 hc        1 MOL     -0.012810
    112 N10        -2.2970    0.8430    3.0070 n         1 MOL     -0.327576
    113 C35        -2.6870   -0.5810    2.9180 c3        1 MOL     -0.069023
    114 C36        -4.2190   -0.7980    3.1030 c         1 MOL      0.645367
    115 O17        -4.7060   -1.8890    3.2370 o         1 MOL     -0.598385
    116 C37        -1.9130   -1.4820    3.9720 c3        1 MOL      0.430941
    117 C38        -1.9150   -1.0990    5.4460 c3        1 MOL     -0.352376
    118 O18        -0.5560   -1.5920    3.5460 oh        1 MOL     -0.600441
    119 H53        -2.5720    1.3960    3.8160 hn        1 MOL      0.238674
    120 H54        -2.3930   -0.8950    1.9160 h1        1 MOL      0.080666
    121 H55        -2.3490   -2.4810    3.8830 h1        1 MOL      0.005889
    122 H56        -0.4320   -1.6440    2.6020 ho        1 MOL      0.356535
    123 H57        -1.3650   -1.9070    5.9140 hc        1 MOL      0.082183
    124 H58        -1.3190   -0.1850    5.4740 hc        1 MOL      0.082183
    125 H59        -2.8990   -0.8910    5.8820 hc        1 MOL      0.082183
    126 N11        -4.9250    0.2490    2.9800 n         1 MOL     -0.482400
    127 C39        -6.3800    0.2430    2.7880 c3        1 MOL     -0.045942
    128 C40        -6.8050   -0.3990    1.3810 c         1 MOL      0.689754
    129 O19        -7.2740    0.3390    0.4950 o         1 MOL     -0.559738
    130 C41        -6.8710    1.6650    2.9320 c3        1 MOL      0.506789
    131 C42        -8.3820    1.5130    3.0920 c3        1 MOL     -0.433953
    132 O20        -6.3660    2.3000    4.1400 oh        1 MOL     -0.645011
    133 H60        -4.4080    1.0950    2.7790 hn        1 MOL      0.242013
    134 H61        -6.9290   -0.4320    3.4370 h1        1 MOL      0.067318
    135 H62        -6.6510    2.2220    2.0270 h1        1 MOL     -0.053103
    136 H63        -5.4190    2.2650    4.2490 ho        1 MOL      0.384330
    137 H64        -8.8680    2.4650    3.2770 hc        1 MOL      0.117276
    138 H65        -8.8800    1.1120    2.2140 hc        1 MOL      0.117276
    139 H66        -8.6930    0.7940    3.8440 hc        1 MOL      0.117276
    140 N12        -6.6980   -1.7450    1.1870 n         1 MOL     -0.780143
    141 C43        -6.5980   -2.3960   -0.1730 c3        1 MOL      0.256200
    142 C44        -5.4380   -2.0650   -1.0690 c         1 MOL      0.362371
    143 O21        -5.0490   -0.8770   -1.1650 o         1 MOL     -0.439166
    144 C45        -7.9780   -2.3370   -0.8850 c3        1 MOL     -0.196186
    145 C46        -9.1610   -2.7040    0.0890 c3        1 MOL     -0.109369
    146 C47       -10.5320   -2.4480   -0.5300 c3        1 MOL      0.094469
    147 C48       -11.6090   -2.6990    0.4660 c3        1 MOL     -0.017860
    148 N13       -12.9330   -2.9090   -0.1830 n4        1 MOL     -0.099484
    149 H67        -6.2520   -2.2320    1.9570 hn        1 MOL      0.399996
    150 H68        -6.5520   -3.4380    0.1460 h1        1 MOL      0.042705
    151 H69        -8.0540   -2.9810   -1.7650 hc        1 MOL      0.087261
    152 H70        -8.1480   -1.3520   -1.3260 hc        1 MOL      0.087261
    153 H71        -9.2720   -1.9970    0.9120 hc        1 MOL      0.059461
    154 H72        -9.0420   -3.7490    0.3720 hc        1 MOL      0.059461
    155 H73       -10.6290   -3.1390   -1.3800 hc        1 MOL      0.016981
    156 H74       -10.5350   -1.4350   -0.9280 hc        1 MOL      0.016981
    157 H75       -11.7370   -1.8930    1.1890 hx        1 MOL      0.074029
    158 H76       -11.4300   -3.6020    1.0420 hx        1 MOL      0.074029
    159 H77       -13.0460   -3.7720   -0.6940 hn        1 MOL      0.183821
    160 H78       -13.6870   -2.7340    0.4630 hn        1 MOL      0.183821
    161 H79       -13.1540   -2.2440   -0.9150 hn        1 MOL      0.183821
    162 N14        -4.8410   -3.0330   -1.7260 n         1 MOL     -0.357807
    163 C49        -3.5500   -2.8510   -2.4500 c3        1 MOL      0.067392
    164 C50        -2.3200   -2.4840   -1.5590 c         1 MOL      0.482780
    165 O22        -1.6040   -1.5150   -1.8480 o         1 MOL     -0.635352
    166 C51        -3.2570   -4.1920   -3.2330 c3        1 MOL      0.093280
    167 C52        -4.0910   -4.4850   -4.4260 c3        1 MOL     -0.376788
    168 C53        -3.7190   -5.8460   -5.0360 c         1 MOL      0.740068
    169 O23        -4.0740   -6.8940   -4.4520 o         1 MOL     -0.632168
    170 O24        -3.0320   -5.9290   -6.0400 o         1 MOL     -0.632168
    171 H80        -5.2960   -3.9270   -1.6190 hn        1 MOL      0.263294
    172 H81        -3.6860   -2.1560   -3.2860 h1        1 MOL      0.066720
    173 H82        -3.1390   -4.9850   -2.4900 hc        1 MOL      0.046297
    174 H83        -2.2100   -4.0900   -3.5150 hc        1 MOL      0.046297
    175 H84        -3.8730   -3.6990   -5.1410 hc        1 MOL      0.068683
    176 H85        -5.1220   -4.5200   -4.0730 hc        1 MOL      0.068683
    177 N15        -2.0330   -3.2340   -0.4460 n         1 MOL     -0.326973
    178 C54        -2.5520   -4.5300    0.0450 c3        1 MOL     -0.000460
    179 H86        -3.0500   -4.3820    1.0030 h1        1 MOL      0.026884
    180 H87        -3.2630   -4.9340   -0.6750 h1        1 MOL      0.026884
    181 H88        -1.7240   -5.2290    0.1710 h1        1 MOL      0.026884
    182 H89        -1.2190   -2.8280   -0.0170 hn        1 MOL      0.340010
    183 Ca1        -0.4530    0.7700   -1.4910 Ca        1 MOL      1.808947
    184 O25        -3.1870    0.8770   -0.6670 oh        1 MOL     -0.880867
    185 H90        -3.9510    0.2980   -0.5850 ho        1 MOL      0.413084
    186 H91        -3.5460    1.7550   -0.5940 ho        1 MOL      0.413084
    187 O26        -2.5360    1.1280   -3.6030 oh        1 MOL     -0.880867
    188 H92        -1.9720    0.9990   -4.3600 ho        1 MOL      0.413084
    189 H93        -3.4270    1.0840   -3.9590 ho        1 MOL      0.413084
    190 O27         1.6650   -0.2370   -2.9030 oh        1 MOL     -0.880867
    191 H94         2.4030   -0.5920   -2.4110 ho        1 MOL      0.413084
    192 H95         2.0560    0.2760   -3.6050 ho        1 MOL      0.413084
@<TRIPOS>BOND
     1    1    2 1   
     2    1    4 1   
     3    1    5 1   
     4    1    6 1   
     5    2    3 2   
     6    2    7 1   
     7    7    8 1   
     8    7   15 1   
     9    8    9 1   
    10    8   11 1   
    11    8   16 1   
    12    9   10 2   
    13    9   19 1   
    14   11   12 1   
    15   11   17 1   
    16   11   18 1   
    17   12   13 1   
    18   12   14 1   
    19   19   20 1   
    20   19   28 1   
    21   20   21 1   
    22   20   23 1   
    23   20   29 1   
    24   21   22 2   
    25   21   41 1   
    26   23   24 1   
    27   23   30 1   
    28   23   31 1   
    29   24   25 1   
    30   24   32 1   
    31   24   33 1   
    32   25   26 1   
    33   25   34 1   
    34   25   35 1   
    35   26   27 1   
    36   26   36 1   
    37   26   37 1   
    38   27   38 1   
    39   27   39 1   
    40   27   40 1   
    41   41   42 1   
    42   41   49 1   
    43   42   43 1   
    44   42   45 1   
    45   42   50 1   
    46   43   44 2   
    47   43   53 1   
    48   45   46 1   
    49   45   51 1   
    50   45   52 1   
    51   46   47 1   
    52   46   48 1   
    53   53   54 1   
    54   53   57 1   
    55   54   55 1   
    56   54   58 1   
    57   54   59 1   
    58   55   56 2   
    59   55   60 1   
    60   60   61 1   
    61   60   68 1   
    62   61   62 1   
    63   61   64 1   
    64   61   69 1   
    65   62   63 2   
    66   62   72 1   
    67   64   65 1   
    68   64   70 1   
    69   64   71 1   
    70   65   66 1   
    71   65   67 1   
    72   72   73 1   
    73   72   76 1   
    74   73   74 1   
    75   73   77 1   
    76   73   78 1   
    77   74   75 2   
    78   74   79 1   
    79   79   80 1   
    80   79   86 1   
    81   80   81 1   
    82   80   83 1   
    83   80   87 1   
    84   81   82 2   
    85   81   93 1   
    86   83   84 1   
    87   83   85 1   
    88   83   88 1   
    89   84   90 1   
    90   84   91 1   
    91   84   92 1   
    92   85   89 1   
    93   93   94 1   
    94   93  101 1   
    95   94   95 1   
    96   94   97 1   
    97   94  102 1   
    98   95   96 2   
    99   95  112 1   
   100   97   98 1   
   101   97   99 1   
   102   97  103 1   
   103   98  100 1   
   104   98  104 1   
   105   98  105 1   
   106   99  106 1   
   107   99  107 1   
   108   99  108 1   
   109  100  109 1   
   110  100  110 1   
   111  100  111 1   
   112  112  113 1   
   113  112  119 1   
   114  113  114 1   
   115  113  116 1   
   116  113  120 1   
   117  114  115 2   
   118  114  126 1   
   119  116  117 1   
   120  116  118 1   
   121  116  121 1   
   122  117  123 1   
   123  117  124 1   
   124  117  125 1   
   125  118  122 1   
   126  126  127 1   
   127  126  133 1   
   128  127  128 1   
   129  127  130 1   
   130  127  134 1   
   131  128  129 2   
   132  128  140 1   
   133  130  131 1   
   134  130  132 1   
   135  130  135 1   
   136  131  137 1   
   137  131  138 1   
   138  131  139 1   
   139  132  136 1   
   140  140  141 1   
   141  140  149 1   
   142  141  142 1   
   143  141  144 1   
   144  141  150 1   
   145  142  143 2   
   146  142  162 1   
   147  144  145 1   
   148  144  151 1   
   149  144  152 1   
   150  145  146 1   
   151  145  153 1   
   152  145  154 1   
   153  146  147 1   
   154  146  155 1   
   155  146  156 1   
   156  147  148 1   
   157  147  157 1   
   158  147  158 1   
   159  148  159 1   
   160  148  160 1   
   161  148  161 1   
   162  162  163 1   
   163  162  171 1   
   164  163  164 1   
   165  163  166 1   
   166  163  172 1   
   167  164  165 2   
   168  164  177 1   
   169  166  167 1   
   170  166  173 1   
   171  166  174 1   
   172  167  168 1   
   173  167  175 1   
   174  167  176 1   
   175  168  169 1   
   176  168  170 1   
   177  177  178 1   
   178  177  182 1   
   179  178  179 1   
   180  178  180 1   
   181  178  181 1   
   182  184  185 1   
   183  184  186 1   
   184  187  188 1   
   185  187  189 1   
   186  190  191 1   
   187  190  192 1   
@<TRIPOS>SUBSTRUCTURE
     1 MOL         1 TEMP              0 ****  ****    0 ROOT
