@<TRIPOS>MOLECULE
MOL
  181   177     1     0     0
SMALL
resp


@<TRIPOS>ATOM
      1 C1          0.6420    6.6060   -2.5170 c3        1 MOL     -0.397401
      2 C2          2.0410    6.2330   -1.9970 c         1 MOL      0.698259
      3 O1          2.4550    6.8640   -1.0300 o         1 MOL     -0.581093
      4 H1         -0.0700    6.5840   -1.6920 hc        1 MOL      0.099766
      5 H2          0.6680    7.6070   -2.9470 hc        1 MOL      0.099766
      6 H3          0.3350    5.8910   -3.2800 hc        1 MOL      0.099766
      7 N1          2.7620    5.2790   -2.6000 n         1 MOL     -0.653520
      8 C3          4.0960    4.7720   -2.1320 c3        1 MOL      0.381383
      9 C4          4.0330    3.9300   -0.8950 c         1 MOL      0.449746
     10 O2          3.6910    2.7260   -0.9100 o         1 MOL     -0.584445
     11 C5          4.9740    4.3200   -3.2530 c3        1 MOL     -0.351858
     12 C6          6.3390    3.8690   -2.7920 c         1 MOL      0.876785
     13 O3          7.0020    4.6510   -2.1370 o         1 MOL     -0.772109
     14 O4          6.8140    2.8020   -3.2520 o         1 MOL     -0.772109
     15 H4          2.3200    4.9070   -3.4210 hn        1 MOL      0.321651
     16 H5          4.5810    5.6710   -1.7690 h1        1 MOL     -0.001000
     17 H6          5.1180    5.1350   -3.9530 hc        1 MOL      0.034002
     18 H7          4.4910    3.5130   -3.8030 hc        1 MOL      0.034002
     19 N2          4.4640    4.5540    0.2030 n         1 MOL     -0.469950
     20 C7          4.6360    3.9110    1.5070 c3        1 MOL      0.376919
     21 C8          3.2890    3.8990    2.3240 c         1 MOL      0.485995
     22 O5          2.4850    4.7760    2.0630 o         1 MOL     -0.530943
     23 C9          5.8370    4.5930    2.2270 c3        1 MOL     -0.468503
     24 H8          4.6390    5.5400    0.1670 hn        1 MOL      0.293295
     25 H9          5.0510    2.9380    1.2670 h1        1 MOL      0.097481
     26 H10         5.5160    5.6140    2.4480 hc        1 MOL      0.116503
     27 H11         6.1690    4.0570    3.1090 hc        1 MOL      0.116503
     28 H12         6.6390    4.4820    1.4870 hc        1 MOL      0.116503
     29 N3          3.0670    3.0380    3.3650 n         1 MOL     -0.431630
     30 C10         3.9160    1.8950    3.6880 c3        1 MOL      0.024210
     31 C11         4.2730    0.9350    2.4760 c         1 MOL     -0.031146
     32 O6          3.4820    0.6490    1.6340 o         1 MOL     -0.241676
     33 C12         3.1580    1.1590    4.8370 c3        1 MOL     -0.389779
     34 C13         1.6800    0.8470    4.5620 c         1 MOL      0.816287
     35 O7          1.2730   -0.1010    3.9380 o         1 MOL     -0.691676
     36 O8          0.9150    1.7270    5.0550 o         1 MOL     -0.691676
     37 H13         2.3210    3.1770    4.0210 hn        1 MOL      0.306012
     38 H14         4.8530    2.1840    4.1540 h1        1 MOL      0.089700
     39 H15         3.2980    1.7440    5.7460 hc        1 MOL      0.091122
     40 H16         3.6710    0.2120    5.0230 hc        1 MOL      0.091122
     41 N4          5.4750    0.3480    2.5080 n         1 MOL     -0.169996
     42 C14         6.0080   -0.6090    1.6630 c3        1 MOL     -0.170297
     43 C15         6.6620   -0.1870    0.3360 c         1 MOL      0.687191
     44 O9          7.0220    0.9830    0.1260 o         1 MOL     -0.530205
     45 H17         6.0900    0.6880    3.2400 hn        1 MOL      0.236351
     46 H18         5.2350   -1.3480    1.4810 h1        1 MOL      0.116594
     47 H19         6.8360   -1.1260    2.1620 h1        1 MOL      0.116594
     48 N5          6.8850   -1.1250   -0.5790 n         1 MOL     -0.670598
     49 C16         6.6490   -2.5380   -0.4190 c3        1 MOL      0.127458
     50 C17         5.8870   -3.1640   -1.5900 c         1 MOL      0.561795
     51 O10         5.8140   -4.4000   -1.7660 o         1 MOL     -0.527400
     52 C18         8.0160   -3.3150   -0.1930 c3        1 MOL     -0.332659
     53 C19         8.9170   -2.8290    0.9750 c         1 MOL      0.672735
     54 N6          9.8540   -1.9780    0.6040 n         1 MOL     -0.787076
     55 O11         8.7410   -3.0080    2.1370 o         1 MOL     -0.541174
     56 H20         7.4490   -0.8030   -1.3430 hn        1 MOL      0.358426
     57 H21         6.1390   -2.7510    0.5210 h1        1 MOL      0.088138
     58 H22         8.5780   -3.3090   -1.1260 hc        1 MOL      0.094431
     59 H23         7.7890   -4.3610   -0.0340 hc        1 MOL      0.094431
     60 H24        10.2220   -2.0730   -0.3300 hn        1 MOL      0.368066
     61 H25        10.2800   -1.3860    1.3050 hn        1 MOL      0.368066
     62 N7          5.2120   -2.2850   -2.4410 n         1 MOL     -0.366016
     63 C20         4.6410   -2.7770   -3.6960 c3        1 MOL     -0.140580
     64 C21         3.2410   -3.4000   -3.4410 c         1 MOL      0.505627
     65 O12         2.5830   -3.8390   -4.3630 o         1 MOL     -0.544677
     66 H26         5.5070   -1.3250   -2.3030 hn        1 MOL      0.279497
     67 H27         5.2590   -3.4750   -4.2520 h1        1 MOL      0.123455
     68 H28         4.5890   -1.9290   -4.3860 h1        1 MOL      0.123455
     69 N8          2.6990   -3.4680   -2.1880 n         1 MOL     -0.352284
     70 C22         1.6470   -4.3880   -1.7240 c3        1 MOL      0.132198
     71 C23         0.4830   -3.6870   -1.0400 c         1 MOL      0.436379
     72 O13         0.5610   -2.6010   -0.4240 o         1 MOL     -0.517016
     73 C24         2.1200   -5.6020   -0.9230 c3        1 MOL      0.355428
     74 C25         3.0610   -6.5390   -1.6610 c3        1 MOL     -0.280017
     75 O14         2.8150   -5.1560    0.2040 oh        1 MOL     -0.600485
     76 H29         3.2670   -3.0730   -1.4540 hn        1 MOL      0.172937
     77 H30         1.1660   -4.8830   -2.5660 h1        1 MOL      0.036257
     78 H31         1.2670   -6.2030   -0.6230 h1        1 MOL     -0.026020
     79 H32         2.1440   -4.9680    0.8560 ho        1 MOL      0.386200
     80 H33         3.5700   -7.2750   -1.0250 hc        1 MOL      0.077232
     81 H34         2.5870   -7.1000   -2.4560 hc        1 MOL      0.077232
     82 H35         3.7750   -5.9030   -2.1910 hc        1 MOL      0.077232
     83 N9         -0.6750   -4.1810   -1.2570 n         1 MOL     -0.427607
     84 C26        -1.9790   -3.5030   -1.0620 c3        1 MOL     -0.022038
     85 C27        -2.3910   -3.6890    0.4580 c         1 MOL      0.254709
     86 O15        -2.1170   -4.6310    1.1440 o         1 MOL     -0.445358
     87 C28        -2.9140   -4.0810   -2.1010 c3        1 MOL      0.194056
     88 C29        -4.3350   -3.5660   -1.9030 c3        1 MOL      0.169091
     89 C30        -2.4600   -3.7820   -3.5420 c3        1 MOL     -0.484665
     90 C31        -5.4080   -4.2810   -2.7980 c3        1 MOL     -0.353065
     91 H36        -0.6990   -5.0880   -1.7020 hn        1 MOL      0.258074
     92 H37        -1.8090   -2.4360   -1.2080 h1        1 MOL      0.233803
     93 H38        -3.0040   -5.1560   -1.9520 hc        1 MOL      0.010337
     94 H39        -4.3430   -2.5310   -2.2430 hc        1 MOL      0.004390
     95 H40        -4.7100   -3.5450   -0.8800 hc        1 MOL      0.004390
     96 H41        -1.5630   -4.3620   -3.7520 hc        1 MOL      0.116528
     97 H42        -3.2140   -4.0770   -4.2670 hc        1 MOL      0.116528
     98 H43        -2.2580   -2.7480   -3.8390 hc        1 MOL      0.116528
     99 H44        -6.3630   -3.9620   -2.3820 hc        1 MOL      0.071648
    100 H45        -5.3630   -3.9800   -3.8420 hc        1 MOL      0.071648
    101 H46        -5.3240   -5.3630   -2.6890 hc        1 MOL      0.071648
    102 N10        -3.1890   -2.7300    0.9230 n         1 MOL      0.052878
    103 C32        -3.7120   -2.5220    2.2680 c3        1 MOL     -0.221841
    104 C33        -5.0050   -1.7090    2.3020 c         1 MOL      0.675885
    105 O16        -5.6980   -1.6890    3.2800 o         1 MOL     -0.563209
    106 C34        -2.6340   -1.9370    3.1450 c3        1 MOL     -0.042904
    107 C35        -1.3430   -2.6770    3.3660 c         1 MOL      0.742004
    108 O17        -1.2610   -3.5700    4.1990 o         1 MOL     -0.714108
    109 O18        -0.3440   -2.3320    2.7030 o         1 MOL     -0.714108
    110 H47        -3.2850   -2.0170    0.2130 hn        1 MOL     -0.200444
    111 H48        -4.0460   -3.4660    2.7050 h1        1 MOL      0.117914
    112 H49        -3.0370   -1.7130    4.1320 hc        1 MOL      0.033041
    113 H50        -2.2700   -0.9920    2.7500 hc        1 MOL      0.033041
    114 N11        -5.3880   -0.9990    1.2040 n         1 MOL     -0.746688
    115 C36        -6.6600   -0.2040    1.1500 c3        1 MOL      0.559260
    116 C37        -6.4010    1.1220    0.4540 c         1 MOL      0.164580
    117 O19        -7.0040    1.3800   -0.6000 o         1 MOL     -0.442755
    118 C38        -7.7360   -1.0500    0.4560 c3        1 MOL     -0.267770
    119 C39        -9.2070   -0.5800    0.7130 ca        1 MOL      0.054267
    120 C40        -9.8420    0.2870   -0.2350 ca        1 MOL     -0.143394
    121 C41        -9.8990   -0.8110    1.9110 ca        1 MOL     -0.143394
    122 C42       -11.1620    0.8010    0.0790 ca        1 MOL     -0.091477
    123 C43       -11.2800   -0.4820    2.0610 ca        1 MOL     -0.091477
    124 C44       -11.8930    0.2640    1.0980 ca        1 MOL     -0.161596
    125 H51        -4.6360   -0.7930    0.5590 hn        1 MOL      0.384894
    126 H52        -6.9950    0.0250    2.1540 h1        1 MOL     -0.027605
    127 H53        -7.6920   -2.0790    0.8010 hc        1 MOL      0.090317
    128 H54        -7.6290   -1.0090   -0.6280 hc        1 MOL      0.090317
    129 H55        -9.3530    0.5110   -1.1710 ha        1 MOL      0.111026
    130 H56        -9.4860   -1.4120    2.7060 ha        1 MOL      0.111026
    131 H57       -11.5990    1.4530   -0.6660 ha        1 MOL      0.089856
    132 H58       -11.8460   -0.8570    2.9040 ha        1 MOL      0.089856
    133 H59       -12.9410    0.4760    1.2460 ha        1 MOL      0.100150
    134 N12        -5.4520    1.9340    0.9510 n         1 MOL     -0.009171
    135 C45        -5.1980    3.3040    0.4830 c3        1 MOL     -0.075754
    136 C46        -4.6690    3.4410   -0.9740 c         1 MOL      0.232528
    137 O20        -4.8750    4.4830   -1.6770 o         1 MOL     -0.455022
    138 C47        -4.1560    3.9480    1.4960 c3        1 MOL      0.098592
    139 C48        -4.1690    3.0570    2.6780 c3        1 MOL     -0.271157
    140 C49        -4.6230    1.7140    2.0770 c3        1 MOL     -0.051282
    141 H60        -6.1430    3.8500    0.4580 h1        1 MOL      0.083949
    142 H61        -3.1950    3.9810    0.9740 hc        1 MOL      0.027522
    143 H62        -4.3370    5.0020    1.7100 hc        1 MOL      0.027522
    144 H63        -3.1760    2.9160    3.1200 hc        1 MOL      0.095950
    145 H64        -4.8810    3.5720    3.3190 hc        1 MOL      0.095950
    146 H65        -3.7630    1.0970    1.8060 h1        1 MOL      0.090260
    147 H66        -5.1130    1.1510    2.8710 h1        1 MOL      0.090260
    148 N13        -4.0880    2.2720   -1.4810 n         1 MOL     -0.105823
    149 C50        -3.8060    2.0510   -2.8930 c3        1 MOL     -0.188670
    150 C51        -5.1220    2.2610   -3.7270 c         1 MOL      0.495786
    151 O21        -5.2930    3.1280   -4.5510 o         1 MOL     -0.531515
    152 C52        -3.1670    0.6510   -3.1010 c3        1 MOL     -0.004133
    153 C53        -1.8590    0.2790   -2.2910 c3        1 MOL      0.047251
    154 C54        -2.1110    0.0920   -0.8020 c         1 MOL      0.334290
    155 O22        -1.1230    0.1620   -0.0350 o         1 MOL     -0.558644
    156 O23        -3.2750   -0.1640   -0.3370 o         1 MOL     -0.558644
    157 H67        -3.9860    1.5010   -0.8420 hn        1 MOL      0.268128
    158 H68        -3.1290    2.8250   -3.2560 h1        1 MOL      0.102159
    159 H69        -2.9120    0.5950   -4.1630 hc        1 MOL     -0.010260
    160 H70        -3.8710   -0.1580   -2.8950 hc        1 MOL     -0.010260
    161 H71        -1.1150    1.0530   -2.4900 hc        1 MOL      0.017609
    162 H72        -1.4350   -0.6450   -2.7000 hc        1 MOL      0.017609
    163 N14        -6.0530    1.3760   -3.3780 n         1 MOL     -0.157670
    164 C55        -7.2930    1.2580   -4.1250 c3        1 MOL     -0.275231
    165 H73        -8.1200    1.1060   -3.4320 h1        1 MOL      0.101853
    166 H74        -7.4610    2.1690   -4.6970 h1        1 MOL      0.101853
    167 H75        -7.2280    0.4080   -4.8040 h1        1 MOL      0.101853
    168 H76        -5.8110    0.7570   -2.6220 hn        1 MOL      0.241311
    169 Ca1         0.9840   -0.6420    1.3450 Ca        1 MOL      1.695018
    170 O24         2.4040   -0.2830   -0.9770 oh        1 MOL     -0.873279
    171 H77         3.3240   -0.0610   -1.0980 ho        1 MOL      0.415968
    172 H78         2.0440   -0.2850   -1.8700 ho        1 MOL      0.415968
    173 O25         2.9430   -2.2270    2.3150 oh        1 MOL     -0.873279
    174 H79         3.5320   -2.0470    3.0380 ho        1 MOL      0.415968
    175 H80         2.7560   -3.1670    2.3760 ho        1 MOL      0.415968
    176 O26        -0.8930    1.2180    2.2480 oh        1 MOL     -0.873279
    177 H81        -0.5880    2.1240    2.1850 ho        1 MOL      0.415968
    178 H82        -1.1200    0.9680    1.3550 ho        1 MOL      0.415968
    179 O27         1.2810    1.9490    0.3740 oh        1 MOL     -0.873279
    180 H83         2.1710    2.0110    0.0260 ho        1 MOL      0.415968
    181 H84         0.9040    2.8210    0.2320 ho        1 MOL      0.415968
@<TRIPOS>BOND
     1    1    2 1   
     2    1    4 1   
     3    1    5 1   
     4    1    6 1   
     5    2    3 2   
     6    2    7 1   
     7    7    8 1   
     8    7   15 1   
     9    8    9 1   
    10    8   11 1   
    11    8   16 1   
    12    9   10 2   
    13    9   19 1   
    14   11   12 1   
    15   11   17 1   
    16   11   18 1   
    17   12   13 1   
    18   12   14 1   
    19   19   20 1   
    20   19   24 1   
    21   20   21 1   
    22   20   23 1   
    23   20   25 1   
    24   21   22 2   
    25   21   29 1   
    26   23   26 1   
    27   23   27 1   
    28   23   28 1   
    29   29   30 1   
    30   29   37 1   
    31   30   31 1   
    32   30   33 1   
    33   30   38 1   
    34   31   32 2   
    35   31   41 1   
    36   33   34 1   
    37   33   39 1   
    38   33   40 1   
    39   34   35 1   
    40   34   36 1   
    41   41   42 1   
    42   41   45 1   
    43   42   43 1   
    44   42   46 1   
    45   42   47 1   
    46   43   44 2   
    47   43   48 1   
    48   48   49 1   
    49   48   56 1   
    50   49   50 1   
    51   49   52 1   
    52   49   57 1   
    53   50   51 2   
    54   50   62 1   
    55   52   53 1   
    56   52   58 1   
    57   52   59 1   
    58   53   54 1   
    59   53   55 2   
    60   54   60 1   
    61   54   61 1   
    62   62   63 1   
    63   62   66 1   
    64   63   64 1   
    65   63   67 1   
    66   63   68 1   
    67   64   65 2   
    68   64   69 1   
    69   69   70 1   
    70   69   76 1   
    71   70   71 1   
    72   70   73 1   
    73   70   77 1   
    74   71   72 2   
    75   71   83 1   
    76   73   74 1   
    77   73   75 1   
    78   73   78 1   
    79   74   80 1   
    80   74   81 1   
    81   74   82 1   
    82   75   79 1   
    83   83   84 1   
    84   83   91 1   
    85   84   85 1   
    86   84   87 1   
    87   84   92 1   
    88   85   86 2   
    89   85  102 1   
    90   87   88 1   
    91   87   89 1   
    92   87   93 1   
    93   88   90 1   
    94   88   94 1   
    95   88   95 1   
    96   89   96 1   
    97   89   97 1   
    98   89   98 1   
    99   90   99 1   
   100   90  100 1   
   101   90  101 1   
   102  102  103 1   
   103  102  110 1   
   104  103  104 1   
   105  103  106 1   
   106  103  111 1   
   107  104  105 2   
   108  104  114 1   
   109  106  107 1   
   110  106  112 1   
   111  106  113 1   
   112  107  108 1   
   113  107  109 1   
   114  114  115 1   
   115  114  125 1   
   116  115  116 1   
   117  115  118 1   
   118  115  126 1   
   119  116  117 2   
   120  116  134 1   
   121  118  119 1   
   122  118  127 1   
   123  118  128 1   
   124  119  120 ar  
   125  119  121 ar  
   126  120  122 ar  
   127  120  129 1   
   128  121  123 ar  
   129  121  130 1   
   130  122  124 ar  
   131  122  131 1   
   132  123  124 ar  
   133  123  132 1   
   134  124  133 1   
   135  134  135 1   
   136  134  140 1   
   137  135  136 1   
   138  135  138 1   
   139  135  141 1   
   140  136  137 2   
   141  136  148 1   
   142  138  139 1   
   143  138  142 1   
   144  138  143 1   
   145  139  140 1   
   146  139  144 1   
   147  139  145 1   
   148  140  146 1   
   149  140  147 1   
   150  148  149 1   
   151  148  157 1   
   152  149  150 1   
   153  149  152 1   
   154  149  158 1   
   155  150  151 2   
   156  150  163 1   
   157  152  153 1   
   158  152  159 1   
   159  152  160 1   
   160  153  154 1   
   161  153  161 1   
   162  153  162 1   
   163  154  155 1   
   164  154  156 1   
   165  163  164 1   
   166  163  168 1   
   167  164  165 1   
   168  164  166 1   
   169  164  167 1   
   170  170  171 1   
   171  170  172 1   
   172  173  174 1   
   173  173  175 1   
   174  176  177 1   
   175  176  178 1   
   176  179  180 1   
   177  179  181 1   
@<TRIPOS>SUBSTRUCTURE
     1 MOL         1 TEMP              0 ****  ****    0 ROOT
