@<TRIPOS>MOLECULE
MOL
  185   180     1     0     0
SMALL
resp


@<TRIPOS>ATOM
      1 C1          5.9950    0.2610   -3.0570 c3        1 MOL     -0.335317
      2 C2          6.5020   -0.6210   -1.9340 c         1 MOL      0.541539
      3 O1          5.7530   -0.7570   -0.9600 o         1 MOL     -0.441679
      4 H1          6.6270    1.1470   -3.1360 hc        1 MOL      0.086448
      5 H2          6.0270   -0.2910   -3.9970 hc        1 MOL      0.086448
      6 H3          4.9690    0.5650   -2.8480 hc        1 MOL      0.086448
      7 N1          7.8070   -0.9490   -1.9720 n         1 MOL     -0.404632
      8 C3          8.5120   -1.5220   -0.7630 c3        1 MOL      0.090740
      9 C4          8.4380   -0.5830    0.4110 c         1 MOL      0.457109
     10 O2          8.3670   -1.0560    1.5500 o         1 MOL     -0.499035
     11 C5          8.0980   -2.9750   -0.3920 c3        1 MOL     -0.244600
     12 C6          8.1850   -3.8660   -1.6070 c         1 MOL      0.734741
     13 O3          7.4130   -4.8640   -1.6540 o         1 MOL     -0.696396
     14 O4          8.9170   -3.5540   -2.5650 o         1 MOL     -0.696396
     15 H4          8.4120   -0.7480   -2.7560 hn        1 MOL      0.284266
     16 H5          9.5800   -1.5310   -0.9670 h1        1 MOL      0.051879
     17 H6          7.1160   -3.0440    0.0710 hc        1 MOL      0.082825
     18 H7          8.8120   -3.3940    0.3120 hc        1 MOL      0.082825
     19 N2          8.3510    0.6850    0.1060 n         1 MOL     -0.404444
     20 C7          8.0400    1.7510    1.1350 c3        1 MOL      0.032830
     21 C8          6.5720    2.1470    1.4190 c         1 MOL      0.613521
     22 O5          6.3010    3.0330    2.2180 o         1 MOL     -0.584552
     23 C9          8.7070    3.0360    0.6400 c3        1 MOL     -0.347717
     24 C10        10.2750    3.0160    0.6570 c3        1 MOL      0.441257
     25 C11        11.0330    4.1530    0.0430 c3        1 MOL     -0.283132
     26 C12        10.7090    4.2030   -1.4670 c3        1 MOL      0.209045
     27 N3         11.3660    5.3190   -2.1690 n4        1 MOL     -0.348328
     28 H8          8.5670    0.9890   -0.8340 hn        1 MOL      0.215076
     29 H9          8.4530    1.4250    2.0870 h1        1 MOL      0.106505
     30 H10         8.4560    3.9000    1.2560 hc        1 MOL      0.087422
     31 H11         8.2860    3.1910   -0.3480 hc        1 MOL      0.087422
     32 H12        10.6560    2.1270    0.1420 hc        1 MOL     -0.053943
     33 H13        10.6720    2.8760    1.6570 hc        1 MOL     -0.053943
     34 H14        12.1060    4.0490    0.2180 hc        1 MOL      0.070776
     35 H15        10.6540    5.0520    0.5270 hc        1 MOL      0.070776
     36 H16         9.6300    4.3380   -1.5510 hx        1 MOL      0.022090
     37 H17        10.9160    3.2440   -1.9230 hx        1 MOL      0.022090
     38 H18        11.3420    5.1580   -3.1570 hn        1 MOL      0.305053
     39 H19        10.9800    6.2200   -1.9330 hn        1 MOL      0.305053
     40 H20        12.3100    5.4500   -1.8190 hn        1 MOL      0.305053
     41 N4          5.6000    1.4330    0.7630 n         1 MOL     -0.526299
     42 C13         4.1690    1.8440    0.9220 c3        1 MOL      0.089341
     43 C14         3.8070    1.5640    2.3290 c         1 MOL      0.576451
     44 O6          4.0210    0.4640    2.9040 o         1 MOL     -0.514382
     45 C15         3.3320    1.0980   -0.0880 c3        1 MOL     -0.250449
     46 C16         1.8440    1.3780    0.0150 c         1 MOL      0.800779
     47 O7          1.3450    2.0840   -0.8940 o         1 MOL     -0.798677
     48 O8          1.1550    0.9470    0.9100 o         1 MOL     -0.798677
     49 H21         5.8570    0.6900    0.1320 hn        1 MOL      0.319166
     50 H22         3.9130    2.8970    0.8230 h1        1 MOL      0.010804
     51 H23         3.6070    0.0810    0.1850 hc        1 MOL      0.103813
     52 H24         3.6710    1.3590   -1.0880 hc        1 MOL      0.103813
     53 N5          3.2580    2.5430    3.0240 n         1 MOL     -0.157960
     54 C17         2.8960    2.4960    4.4280 c3        1 MOL     -0.208721
     55 C18         1.8690    1.5400    4.9250 c         1 MOL      0.581185
     56 O9          1.7470    1.4110    6.1650 o         1 MOL     -0.557871
     57 H25         3.2410    3.4830    2.6560 hn        1 MOL      0.202275
     58 H26         2.6080    3.4600    4.8450 h1        1 MOL      0.105924
     59 H27         3.7940    2.2380    4.9750 h1        1 MOL      0.105924
     60 N6          1.1370    0.8260    4.0260 n         1 MOL     -0.427123
     61 C19         0.4500   -0.4750    4.3650 c3        1 MOL      0.051705
     62 C20         0.8540   -1.6390    3.3850 c         1 MOL      0.442274
     63 O10        -0.0180   -2.4850    3.1870 o         1 MOL     -0.515924
     64 C21        -1.0670   -0.2200    4.3850 c3        1 MOL     -0.229593
     65 C22        -1.8140   -0.1370    3.0730 c         1 MOL      0.458038
     66 N7         -2.7830   -0.9750    2.8190 n         1 MOL     -0.618156
     67 O11        -1.5750    0.7510    2.2460 o         1 MOL     -0.506735
     68 H28         1.2670    1.0530    3.0490 hn        1 MOL      0.218287
     69 H29         0.8000   -0.7490    5.3670 h1        1 MOL      0.106838
     70 H30        -1.3390    0.6170    5.0160 hc        1 MOL      0.107502
     71 H31        -1.4130   -1.0770    4.9590 hc        1 MOL      0.107502
     72 H32        -2.8700   -1.6760    3.5290 hn        1 MOL      0.320089
     73 H33        -3.2580   -0.9340    1.9240 hn        1 MOL      0.320089
     74 N8          2.0770   -1.7040    2.8460 n         1 MOL     -0.205651
     75 C23         2.4590   -2.8750    2.0710 c3        1 MOL     -0.244290
     76 C24         1.5570   -3.3440    0.9050 c         1 MOL      0.591548
     77 O12         1.5310   -4.5460    0.6670 o         1 MOL     -0.529529
     78 H34         2.7750   -0.9770    2.9570 hn        1 MOL      0.192945
     79 H35         2.6340   -3.6950    2.7760 h1        1 MOL      0.138406
     80 H36         3.4490   -2.7360    1.6500 h1        1 MOL      0.138406
     81 N9          0.7470   -2.4610    0.3440 n         1 MOL     -0.518170
     82 C25        -0.0870   -2.7590   -0.7440 c3        1 MOL      0.159492
     83 C26        -1.4160   -2.0310   -0.7060 c         1 MOL      0.652931
     84 O13        -1.3580   -0.7940   -0.3310 o         1 MOL     -0.528630
     85 C27         0.5580   -2.5610   -2.1410 c3        1 MOL     -0.016086
     86 C28         1.8320   -3.3080   -2.4530 ca        1 MOL     -0.012955
     87 C29         1.8400   -4.3690   -3.4210 ca        1 MOL     -0.169854
     88 C30         3.0350   -3.0430   -1.8280 ca        1 MOL     -0.169854
     89 C31         3.0350   -4.9790   -3.8320 ca        1 MOL     -0.257497
     90 C32         4.2190   -3.8040   -2.1070 ca        1 MOL     -0.257497
     91 C33         4.2180   -4.6910   -3.1410 ca        1 MOL      0.475790
     92 O14         5.3770   -5.2530   -3.5470 oh        1 MOL     -0.614141
     93 H37         0.6640   -1.5240    0.7170 hn        1 MOL      0.346358
     94 H38        -0.3930   -3.8010   -0.8460 h1        1 MOL      0.033669
     95 H39         0.6990   -1.4880   -2.3120 hc        1 MOL      0.015471
     96 H40        -0.1660   -2.8820   -2.8910 hc        1 MOL      0.015471
     97 H41         0.9300   -4.7500   -3.8720 ha        1 MOL      0.106706
     98 H42         3.0880   -2.3880   -0.9640 ha        1 MOL      0.106706
     99 H43         3.0810   -5.7340   -4.6020 ha        1 MOL      0.136500
    100 H44         5.1840   -3.6670   -1.6340 ha        1 MOL      0.136500
    101 H45         6.1360   -5.0700   -2.9900 ho        1 MOL      0.441736
    102 N10        -2.5520   -2.6350   -1.0650 n         1 MOL     -0.758572
    103 C34        -3.8740   -1.9780   -1.2540 c3        1 MOL      0.123703
    104 C35        -4.6780   -1.8920    0.0390 c         1 MOL      0.068406
    105 O15        -5.3450   -0.8900    0.4140 o         1 MOL     -0.252458
    106 C36        -4.6980   -2.3980   -2.5220 c3        1 MOL      0.175887
    107 C37        -3.7850   -2.6560   -3.7560 c3        1 MOL     -0.095979
    108 C38        -5.8200   -1.3900   -2.7880 c3        1 MOL     -0.524908
    109 C39        -3.0770   -1.4490   -4.2850 c3        1 MOL     -0.258128
    110 H46        -2.4590   -3.5440   -1.4790 hn        1 MOL      0.363907
    111 H47        -3.5800   -0.9420   -1.4210 h1        1 MOL      0.009101
    112 H48        -5.1600   -3.3630   -2.3340 hc        1 MOL     -0.058252
    113 H49        -4.3080   -3.1350   -4.5740 hc        1 MOL      0.051916
    114 H50        -2.9740   -3.3240   -3.4720 hc        1 MOL      0.051916
    115 H51        -6.3830   -1.7900   -3.6350 hc        1 MOL      0.177154
    116 H52        -6.4580   -1.4030   -1.9090 hc        1 MOL      0.177154
    117 H53        -5.3690   -0.4240   -3.0330 hc        1 MOL      0.177154
    118 H54        -2.3180   -1.1040   -3.5880 hc        1 MOL      0.090106
    119 H55        -2.5990   -1.7220   -5.2260 hc        1 MOL      0.090106
    120 H56        -3.8830   -0.7430   -4.4740 hc        1 MOL      0.090106
    121 N11        -4.6810   -3.0040    0.6970 n         1 MOL     -0.105512
    122 C40        -5.4790   -3.2750    1.8840 c3        1 MOL     -0.142263
    123 C41        -6.9130   -2.7910    1.7930 c         1 MOL      0.418646
    124 O16        -7.4210   -2.3810    2.8540 o         1 MOL     -0.459052
    125 C42        -5.6190   -4.7460    2.2060 c3        1 MOL      0.205140
    126 O17        -4.4500   -5.1760    2.9010 oh        1 MOL     -0.578718
    127 H57        -4.2040   -3.7990    0.2950 hn        1 MOL      0.283613
    128 H58        -5.0040   -2.7270    2.6920 h1        1 MOL      0.124720
    129 H59        -5.5960   -5.3120    1.2680 h1        1 MOL      0.053025
    130 H60        -6.5000   -4.9160    2.8160 h1        1 MOL      0.053025
    131 H61        -3.6250   -4.9160    2.4890 ho        1 MOL      0.382959
    132 N12        -7.5020   -2.6550    0.6080 n         1 MOL     -0.531438
    133 C43        -8.8260   -2.0480    0.4850 c3        1 MOL      0.382342
    134 C44        -8.9850   -0.5800    0.9190 c         1 MOL      0.379954
    135 O18        -9.9630   -0.2030    1.5060 o         1 MOL     -0.535233
    136 C45        -9.9090   -2.9330    1.0220 c3        1 MOL     -0.394816
    137 H62        -7.1180   -3.0950   -0.2190 hn        1 MOL      0.301220
    138 H63        -8.9930   -1.9290   -0.5910 h1        1 MOL     -0.013410
    139 H64        -9.7080   -3.0790    2.0800 hc        1 MOL      0.110746
    140 H65       -10.8940   -2.4790    0.8690 hc        1 MOL      0.110746
    141 H66        -9.9050   -3.9270    0.5700 hc        1 MOL      0.110746
    142 N13        -8.0370    0.2270    0.5930 n         1 MOL     -0.188048
    143 C46        -7.8450    1.6220    1.0070 c3        1 MOL      0.266435
    144 C47        -7.1270    2.2220   -0.2390 c         1 MOL      0.424056
    145 O19        -6.6200    1.4150   -1.0540 o         1 MOL     -0.541562
    146 C48        -7.0240    1.7280    2.2710 c3        1 MOL     -0.162127
    147 H67        -7.2710   -0.1930    0.0930 hn        1 MOL      0.042960
    148 H68        -8.7980    2.1290    1.1490 h1        1 MOL     -0.001664
    149 H69        -7.6490    1.3880    3.0990 hc        1 MOL      0.046112
    150 H70        -6.1920    1.0500    2.1060 hc        1 MOL      0.046112
    151 H71        -6.7250    2.7500    2.4990 hc        1 MOL      0.046112
    152 N14        -7.1260    3.4940   -0.4280 n         1 MOL     -0.614980
    153 C49        -6.5170    4.1750   -1.6320 c3        1 MOL      0.120247
    154 C50        -7.2670    4.1170   -2.9480 c         1 MOL      0.343894
    155 O20        -6.8140    4.5510   -4.0240 o         1 MOL     -0.467751
    156 C51        -5.0070    3.9630   -1.6990 c3        1 MOL      0.031078
    157 C52        -4.2070    5.1030   -2.3090 c3        1 MOL     -0.273209
    158 C53        -2.7270    4.9750   -1.9880 c         1 MOL      0.679796
    159 O21        -2.1560    3.9730   -1.4830 o         1 MOL     -0.685577
    160 O22        -1.9630    5.9260   -2.2380 o         1 MOL     -0.685577
    161 H72        -7.3670    4.1010    0.3550 hn        1 MOL      0.350493
    162 H73        -6.6110    5.2060   -1.2990 h1        1 MOL      0.051111
    163 H74        -4.9130    3.1170   -2.3830 hc        1 MOL      0.044083
    164 H75        -4.5630    3.7230   -0.7300 hc        1 MOL      0.044083
    165 H76        -4.6270    6.0400   -1.9590 hc        1 MOL      0.079325
    166 H77        -4.3880    5.0220   -3.3890 hc        1 MOL      0.079325
    167 N15        -8.4560    3.5410   -3.0300 n         1 MOL     -0.232711
    168 C54        -9.0720    3.0720   -4.2960 c3        1 MOL     -0.089689
    169 H78        -9.7880    2.2780   -4.0790 h1        1 MOL      0.073795
    170 H79        -9.5870    3.9030   -4.7800 h1        1 MOL      0.073795
    171 H80        -8.2970    2.6890   -4.9590 h1        1 MOL      0.073795
    172 H81        -8.9480    3.2270   -2.1980 hn        1 MOL      0.236598
    173 Ca1        -1.2070    1.9420   -0.2260 Ca        1 MOL      1.729017
    174 O23         0.3640    4.0270    0.9580 oh        1 MOL     -0.840850
    175 H82         0.4810    4.5490    1.7560 ho        1 MOL      0.412309
    176 H83         1.1660    4.1600    0.4590 ho        1 MOL      0.412309
    177 O24        -1.5270    1.5420   -2.8580 oh        1 MOL     -0.840850
    178 H84        -2.0030    2.1300   -3.4440 ho        1 MOL      0.412309
    179 H85        -0.7320    1.3200   -3.3380 ho        1 MOL      0.412309
    180 O25        -3.8020    1.2320   -0.0780 oh        1 MOL     -0.840850
    181 H86        -4.2840    0.5040    0.3130 ho        1 MOL      0.412309
    182 H87        -4.4640    1.7320   -0.5550 ho        1 MOL      0.412309
    183 O26        -2.4980    3.4250    1.3880 oh        1 MOL     -0.840850
    184 H88        -2.2600    3.4970    2.3080 ho        1 MOL      0.412309
    185 H89        -3.4450    3.5350    1.3740 ho        1 MOL      0.412309
@<TRIPOS>BOND
     1    1    2 1   
     2    1    4 1   
     3    1    5 1   
     4    1    6 1   
     5    2    3 2   
     6    2    7 1   
     7    7    8 1   
     8    7   15 1   
     9    8    9 1   
    10    8   11 1   
    11    8   16 1   
    12    9   10 2   
    13    9   19 1   
    14   11   12 1   
    15   11   17 1   
    16   11   18 1   
    17   12   13 1   
    18   12   14 1   
    19   19   20 1   
    20   19   28 1   
    21   20   21 1   
    22   20   23 1   
    23   20   29 1   
    24   21   22 2   
    25   21   41 1   
    26   23   24 1   
    27   23   30 1   
    28   23   31 1   
    29   24   25 1   
    30   24   32 1   
    31   24   33 1   
    32   25   26 1   
    33   25   34 1   
    34   25   35 1   
    35   26   27 1   
    36   26   36 1   
    37   26   37 1   
    38   27   38 1   
    39   27   39 1   
    40   27   40 1   
    41   41   42 1   
    42   41   49 1   
    43   42   43 1   
    44   42   45 1   
    45   42   50 1   
    46   43   44 2   
    47   43   53 1   
    48   45   46 1   
    49   45   51 1   
    50   45   52 1   
    51   46   47 1   
    52   46   48 1   
    53   53   54 1   
    54   53   57 1   
    55   54   55 1   
    56   54   58 1   
    57   54   59 1   
    58   55   56 2   
    59   55   60 1   
    60   60   61 1   
    61   60   68 1   
    62   61   62 1   
    63   61   64 1   
    64   61   69 1   
    65   62   63 2   
    66   62   74 1   
    67   64   65 1   
    68   64   70 1   
    69   64   71 1   
    70   65   66 1   
    71   65   67 2   
    72   66   72 1   
    73   66   73 1   
    74   74   75 1   
    75   74   78 1   
    76   75   76 1   
    77   75   79 1   
    78   75   80 1   
    79   76   77 2   
    80   76   81 1   
    81   81   82 1   
    82   81   93 1   
    83   82   83 1   
    84   82   85 1   
    85   82   94 1   
    86   83   84 2   
    87   83  102 1   
    88   85   86 1   
    89   85   95 1   
    90   85   96 1   
    91   86   87 ar  
    92   86   88 ar  
    93   87   89 ar  
    94   87   97 1   
    95   88   90 ar  
    96   88   98 1   
    97   89   91 ar  
    98   89   99 1   
    99   90   91 ar  
   100   90  100 1   
   101   91   92 1   
   102   92  101 1   
   103  102  103 1   
   104  102  110 1   
   105  103  104 1   
   106  103  106 1   
   107  103  111 1   
   108  104  105 2   
   109  104  121 1   
   110  106  107 1   
   111  106  108 1   
   112  106  112 1   
   113  107  109 1   
   114  107  113 1   
   115  107  114 1   
   116  108  115 1   
   117  108  116 1   
   118  108  117 1   
   119  109  118 1   
   120  109  119 1   
   121  109  120 1   
   122  121  122 1   
   123  121  127 1   
   124  122  123 1   
   125  122  125 1   
   126  122  128 1   
   127  123  124 2   
   128  123  132 1   
   129  125  126 1   
   130  125  129 1   
   131  125  130 1   
   132  126  131 1   
   133  132  133 1   
   134  132  137 1   
   135  133  134 1   
   136  133  136 1   
   137  133  138 1   
   138  134  135 2   
   139  134  142 1   
   140  136  139 1   
   141  136  140 1   
   142  136  141 1   
   143  142  143 1   
   144  142  147 1   
   145  143  144 1   
   146  143  146 1   
   147  143  148 1   
   148  144  145 2   
   149  144  152 1   
   150  146  149 1   
   151  146  150 1   
   152  146  151 1   
   153  152  153 1   
   154  152  161 1   
   155  153  154 1   
   156  153  156 1   
   157  153  162 1   
   158  154  155 2   
   159  154  167 1   
   160  156  157 1   
   161  156  163 1   
   162  156  164 1   
   163  157  158 1   
   164  157  165 1   
   165  157  166 1   
   166  158  159 1   
   167  158  160 1   
   168  167  168 1   
   169  167  172 1   
   170  168  169 1   
   171  168  170 1   
   172  168  171 1   
   173  174  175 1   
   174  174  176 1   
   175  177  178 1   
   176  177  179 1   
   177  180  181 1   
   178  180  182 1   
   179  183  184 1   
   180  183  185 1   
@<TRIPOS>SUBSTRUCTURE
     1 MOL         1 TEMP              0 ****  ****    0 ROOT
