@<TRIPOS>MOLECULE
MOL
  183   181     1     0     0
SMALL
resp


@<TRIPOS>ATOM
      1 C1         12.4460    4.8220   -2.6880 c3        1 MOL     -0.347196
      2 C2         12.0000    3.6550   -1.7710 c         1 MOL      0.629452
      3 O1         12.3380    2.5350   -2.0610 o         1 MOL     -0.593462
      4 H1         11.9000    5.7260   -2.4160 hc        1 MOL      0.091378
      5 H2         13.5150    4.9930   -2.5650 hc        1 MOL      0.091378
      6 H3         12.2350    4.5680   -3.7270 hc        1 MOL      0.091378
      7 N1         11.2690    3.9020   -0.6860 n         1 MOL     -0.035592
      8 C3         10.8020    2.9300    0.3210 c3        1 MOL     -0.703701
      9 C4          9.5040    2.3040   -0.0930 c         1 MOL      0.639642
     10 O2          8.5510    2.9300   -0.6230 o         1 MOL     -0.699460
     11 C5         10.6570    3.5940    1.7270 c3        1 MOL     -0.073155
     12 C6         10.0980    4.9490    1.7170 c         1 MOL      0.833949
     13 O3          9.4400    5.4970    0.7270 o         1 MOL     -0.731082
     14 O4         10.1840    5.7050    2.7020 o         1 MOL     -0.731082
     15 H4         10.9170    4.8540   -0.5940 hn        1 MOL      0.075262
     16 H5         11.5310    2.1290    0.4520 h1        1 MOL      0.242202
     17 H6         11.6920    3.6610    2.0530 hc        1 MOL      0.096901
     18 H7         10.1520    2.8970    2.3920 hc        1 MOL      0.096901
     19 N2          9.5050    0.9870    0.0850 n         1 MOL     -0.152793
     20 C7          8.3490    0.0930   -0.1720 c3        1 MOL     -0.193730
     21 C8          7.0450    0.3890    0.5690 c         1 MOL      0.745474
     22 O5          7.1200    0.4990    1.7480 o         1 MOL     -0.561310
     23 C9          8.8110   -1.3720   -0.1020 c3        1 MOL     -0.349463
     24 C10         7.8300   -2.4440   -0.5580 c3        1 MOL      0.000302
     25 C11         7.6150   -2.3730   -2.0220 c3        1 MOL      0.065790
     26 C12         6.6710   -3.4560   -2.3310 c3        1 MOL      0.119767
     27 N3          6.6920   -3.6740   -3.8100 n4        1 MOL     -0.312460
     28 H8         10.3310    0.4900    0.4000 hn        1 MOL      0.237458
     29 H9          8.1660    0.2530   -1.2400 h1        1 MOL      0.100800
     30 H10         8.9890   -1.6160    0.9490 hc        1 MOL      0.130514
     31 H11         9.7800   -1.4600   -0.6010 hc        1 MOL      0.130514
     32 H12         6.8990   -2.3880    0.0100 hc        1 MOL      0.047583
     33 H13         8.2180   -3.4340   -0.2860 hc        1 MOL      0.047583
     34 H14         8.5760   -2.5850   -2.4720 hc        1 MOL      0.004309
     35 H15         7.2490   -1.4030   -2.3510 hc        1 MOL      0.004309
     36 H16         5.7100   -3.1500   -1.9270 hx        1 MOL      0.041861
     37 H17         6.9770   -4.3820   -1.8530 hx        1 MOL      0.041861
     38 H18         6.6500   -2.7990   -4.3080 hn        1 MOL      0.276338
     39 H19         7.5200   -4.1900   -4.0700 hn        1 MOL      0.276338
     40 H20         5.9210   -4.2840   -4.0460 hn        1 MOL      0.276338
     41 N4          5.8880    0.3400   -0.0650 n         1 MOL     -0.397698
     42 C13         4.5380    0.3870    0.5490 c3        1 MOL      0.230433
     43 C14         3.7670   -0.8800    0.0910 c         1 MOL      0.294289
     44 O6          3.8890   -1.2720   -1.0660 o         1 MOL     -0.557676
     45 C15         3.8780    1.6020    0.1250 c3        1 MOL      0.101671
     46 C16         4.8080    2.8230   -0.0160 c         1 MOL      0.521586
     47 O7          5.3320    3.0720   -1.1370 o         1 MOL     -0.748420
     48 O8          5.2420    3.3750    0.9930 o         1 MOL     -0.748420
     49 H21         5.9210    0.3680   -1.0730 hn        1 MOL      0.243023
     50 H22         4.6370    0.4350    1.6380 h1        1 MOL      0.036296
     51 H23         2.9310    1.6780    0.6580 hc        1 MOL      0.007132
     52 H24         3.5580    1.3240   -0.8870 hc        1 MOL      0.007132
     53 N5          2.9370   -1.5350    0.8720 n         1 MOL     -0.158890
     54 C17         2.6370   -1.3950    2.3170 c3        1 MOL     -0.279308
     55 C18         2.3490   -2.7640    3.0370 c         1 MOL      0.667865
     56 O9          2.9460   -3.7230    2.6120 o         1 MOL     -0.547701
     57 H25         2.5430   -2.3640    0.4500 hn        1 MOL      0.278226
     58 H26         1.8350   -0.7020    2.5630 h1        1 MOL      0.104406
     59 H27         3.5290   -0.9580    2.7750 h1        1 MOL      0.104406
     60 N6          1.4830   -2.7730    4.0480 n         1 MOL     -0.480428
     61 C19         0.9290   -4.0290    4.5230 c3        1 MOL     -0.006471
     62 C20         0.1860   -4.7970    3.3480 c         1 MOL      0.443993
     63 O10        -0.6420   -4.1180    2.7400 o         1 MOL     -0.457834
     64 C21        -0.0160   -3.7830    5.6900 c3        1 MOL     -0.041433
     65 C22        -0.6380   -4.9720    6.3710 c         1 MOL      0.679282
     66 O11        -0.0830   -6.0860    6.1810 o         1 MOL     -0.682988
     67 O12        -1.6330   -4.6980    7.0830 o         1 MOL     -0.682988
     68 H28         1.0900   -1.8850    4.3200 hn        1 MOL      0.302548
     69 H29         1.6860   -4.7160    4.9030 h1        1 MOL      0.048365
     70 H30        -0.7970   -3.0980    5.3690 hc        1 MOL      0.022175
     71 H31         0.5430   -3.2890    6.4850 hc        1 MOL      0.022175
     72 N7          0.4060   -6.0810    3.0320 n         1 MOL     -0.260513
     73 C23        -0.3150   -6.9180    2.0640 c3        1 MOL     -0.144437
     74 C24        -0.2020   -6.3780    0.6160 c         1 MOL      0.527282
     75 O13        -0.7500   -7.0110   -0.2780 o         1 MOL     -0.574117
     76 H32         1.1450   -6.5340    3.5560 hn        1 MOL      0.243320
     77 H33        -1.3760   -6.9230    2.3350 h1        1 MOL      0.123695
     78 H34         0.0300   -7.9500    2.1050 h1        1 MOL      0.123695
     79 N8          0.4730   -5.2220    0.3610 n         1 MOL     -0.303386
     80 C25         0.7020   -4.6040   -0.9660 c3        1 MOL     -0.036135
     81 C26         0.3350   -3.1730   -0.8290 c         1 MOL      0.461503
     82 O14         0.2370   -2.6100    0.2420 o         1 MOL     -0.449108
     83 C27         2.0820   -4.9470   -1.3880 c3        1 MOL      0.305753
     84 C28         2.4070   -4.4280   -2.8030 c3        1 MOL     -0.401956
     85 O15         3.0790   -4.2580   -0.5950 oh        1 MOL     -0.545510
     86 H35         0.7600   -4.6610    1.1520 hn        1 MOL      0.073556
     87 H36         0.1050   -5.0000   -1.7900 h1        1 MOL      0.064815
     88 H37         2.2700   -6.0170   -1.3650 h1        1 MOL      0.055403
     89 H38         3.7430   -4.9230   -0.4100 ho        1 MOL      0.360061
     90 H39         2.4070   -3.3450   -2.8630 hc        1 MOL      0.080393
     91 H40         3.4360   -4.6990   -2.9930 hc        1 MOL      0.080393
     92 H41         1.6630   -4.8090   -3.5110 hc        1 MOL      0.080393
     93 N9          0.0240   -2.4850   -1.9110 n         1 MOL     -0.036702
     94 C29        -0.4790   -1.0740   -1.9560 c3        1 MOL     -0.642380
     95 C30        -1.9780   -1.0630   -1.6450 c         1 MOL      0.846906
     96 O16        -2.5600   -0.1590   -1.0470 o         1 MOL     -0.594746
     97 C31        -0.1270   -0.1890   -3.1820 c3        1 MOL      0.246165
     98 C32        -0.7750   -0.6680   -4.4660 c3        1 MOL      0.125123
     99 C33         1.4160    0.0120   -3.2390 c3        1 MOL     -0.034770
    100 C34        -0.3000    0.1410   -5.7100 c3        1 MOL     -0.155771
    101 H42        -0.0520   -2.9930   -2.7830 hn        1 MOL      0.207888
    102 H43        -0.0900   -0.5980   -1.0510 h1        1 MOL      0.198814
    103 H44        -0.5430    0.8030   -3.0010 hc        1 MOL      0.023928
    104 H45        -1.8480   -0.5400   -4.2970 hc        1 MOL     -0.022055
    105 H46        -0.5440   -1.7240   -4.6130 hc        1 MOL     -0.022055
    106 H47         1.6490    0.7970   -3.9520 hc        1 MOL     -0.001323
    107 H48         1.8060    0.3580   -2.2830 hc        1 MOL     -0.001323
    108 H49         1.9050   -0.9180   -3.5150 hc        1 MOL     -0.001323
    109 H50        -0.1740    1.1800   -5.4360 hc        1 MOL      0.029899
    110 H51         0.7170   -0.2090   -5.9190 hc        1 MOL      0.029899
    111 H52        -0.9190   -0.0840   -6.5730 hc        1 MOL      0.029899
    112 N10        -2.7260   -2.1120   -1.9620 n         1 MOL     -0.473171
    113 C35        -4.0820   -2.2580   -1.6130 c3        1 MOL     -0.289124
    114 C36        -5.1330   -1.6560   -2.5950 c         1 MOL      0.782062
    115 O17        -5.0540   -1.8130   -3.7830 o         1 MOL     -0.573635
    116 C37        -4.3830   -3.7570   -1.4540 c3        1 MOL      0.471510
    117 C38        -3.4690   -4.4810   -0.4440 c3        1 MOL     -0.296301
    118 O18        -5.6420   -3.9230   -0.9810 oh        1 MOL     -0.643815
    119 H53        -2.2330   -2.9670   -2.1890 hn        1 MOL      0.179907
    120 H54        -4.2100   -1.9000   -0.5940 h1        1 MOL      0.154680
    121 H55        -4.1850   -4.2320   -2.4180 h1        1 MOL      0.017262
    122 H56        -5.6620   -3.4270   -0.1670 ho        1 MOL      0.387948
    123 H57        -2.4220   -4.3410   -0.6770 hc        1 MOL      0.092553
    124 H58        -3.6450   -4.1870    0.5910 hc        1 MOL      0.092553
    125 H59        -3.6450   -5.5320   -0.6900 hc        1 MOL      0.092553
    126 N11        -6.0590   -0.9050   -2.0140 n         1 MOL     -0.494946
    127 C39        -7.2680   -0.6020   -2.6680 c3        1 MOL     -0.058143
    128 C40        -7.8790    0.6690   -2.1520 c         1 MOL      0.658848
    129 O19        -8.4060    1.4970   -2.8380 o         1 MOL     -0.580958
    130 C41        -8.2950   -1.7490   -2.5890 c3        1 MOL      0.239099
    131 C42        -9.5840   -1.5200   -3.4620 c3        1 MOL     -0.305328
    132 O20        -8.5650   -1.9950   -1.2530 oh        1 MOL     -0.610845
    133 H60        -6.1220   -0.8140   -1.0080 hn        1 MOL      0.224572
    134 H61        -7.0800   -0.3180   -3.7030 h1        1 MOL      0.111415
    135 H62        -7.7160   -2.5730   -3.0170 h1        1 MOL      0.040508
    136 H63        -8.9020   -2.8830   -1.1120 ho        1 MOL      0.418288
    137 H64        -9.4570   -1.6630   -4.5360 hc        1 MOL      0.080749
    138 H65       -10.2370   -2.3650   -3.2450 hc        1 MOL      0.080749
    139 H66        -9.9910   -0.5160   -3.3420 hc        1 MOL      0.080749
    140 N12        -7.8540    0.8890   -0.8330 n         1 MOL     -0.441771
    141 C43        -8.4360    2.0220   -0.1290 c3        1 MOL      0.047144
    142 C44        -7.5320    2.7120    0.8900 c         1 MOL      0.514445
    143 O21        -6.9870    2.0930    1.8390 o         1 MOL     -0.510622
    144 C45        -9.8350    1.6310    0.5290 c3        1 MOL     -0.322019
    145 C46       -11.0340    1.3810   -0.4630 c3        1 MOL      0.000287
    146 C47       -12.3390    1.0580    0.3250 c3        1 MOL      0.005642
    147 C48       -13.4460    0.7640   -0.7240 c3        1 MOL     -0.001229
    148 N13       -14.7640    0.4270   -0.0460 n4        1 MOL     -0.172755
    149 H67        -7.5040    0.1220   -0.2830 hn        1 MOL      0.304101
    150 H68        -8.7510    2.7440   -0.8910 h1        1 MOL      0.103772
    151 H69       -10.1670    2.4700    1.1290 hc        1 MOL      0.113430
    152 H70        -9.6580    0.7890    1.2070 hc        1 MOL      0.113430
    153 H71       -10.8280    0.5480   -1.1460 hc        1 MOL      0.052465
    154 H72       -11.1490    2.3130   -1.0170 hc        1 MOL      0.052465
    155 H73       -12.5480    1.9240    0.9520 hc        1 MOL      0.036154
    156 H74       -12.1930    0.2550    1.0440 hc        1 MOL      0.036154
    157 H75       -13.0520   -0.1330   -1.2170 hx        1 MOL      0.070011
    158 H76       -13.5880    1.6050   -1.3980 hx        1 MOL      0.070011
    159 H77       -15.2330    1.3040    0.0780 hn        1 MOL      0.230991
    160 H78       -15.4100   -0.0370   -0.6610 hn        1 MOL      0.230991
    161 H79       -14.6750   -0.1170    0.8000 hn        1 MOL      0.230991
    162 N14        -7.3190    4.0290    0.7410 n         1 MOL     -0.554905
    163 C49        -6.4660    4.8600    1.7020 c3        1 MOL      0.274836
    164 C50        -4.9660    4.6220    1.7220 c         1 MOL      0.389003
    165 O22        -4.4520    4.6860    2.8140 o         1 MOL     -0.533401
    166 C51        -6.7590    6.3810    1.4050 c3        1 MOL      0.143837
    167 C52        -8.1010    6.7550    2.0490 c3        1 MOL     -0.240558
    168 C53        -8.3150    8.2520    2.1990 c         1 MOL      0.725137
    169 O23        -9.2290    8.8730    1.6430 o         1 MOL     -0.638167
    170 O24        -7.5050    8.8720    2.9560 o         1 MOL     -0.638167
    171 H80        -7.6780    4.4420   -0.1190 hn        1 MOL      0.292619
    172 H81        -6.7440    4.7380    2.7540 h1        1 MOL      0.057608
    173 H82        -6.7610    6.6480    0.3460 hc        1 MOL     -0.022078
    174 H83        -5.9270    6.9630    1.7940 hc        1 MOL     -0.022078
    175 H84        -8.2120    6.4050    3.0800 hc        1 MOL      0.020635
    176 H85        -8.8610    6.3290    1.3880 hc        1 MOL      0.020635
    177 N15        -4.1760    4.4350    0.6730 n         1 MOL     -0.310021
    178 C54        -4.5480    4.5970   -0.7370 c3        1 MOL     -0.052812
    179 H86        -4.9240    5.6060   -0.9000 h1        1 MOL      0.047634
    180 H87        -3.6730    4.4300   -1.3660 h1        1 MOL      0.047634
    181 H88        -5.3230    3.8750   -0.9930 h1        1 MOL      0.047634
    182 H89        -3.2000    4.3880    0.9000 hn        1 MOL      0.272994
    183 Ca1         6.9430    4.9440   -0.2520 Ca        1 MOL      1.661136
@<TRIPOS>BOND
     1    1    2 1   
     2    1    4 1   
     3    1    5 1   
     4    1    6 1   
     5    2    3 2   
     6    2    7 1   
     7    7    8 1   
     8    7   15 1   
     9    8    9 1   
    10    8   11 1   
    11    8   16 1   
    12    9   10 2   
    13    9   19 1   
    14   11   12 1   
    15   11   17 1   
    16   11   18 1   
    17   12   13 1   
    18   12   14 1   
    19   19   20 1   
    20   19   28 1   
    21   20   21 1   
    22   20   23 1   
    23   20   29 1   
    24   21   22 2   
    25   21   41 1   
    26   23   24 1   
    27   23   30 1   
    28   23   31 1   
    29   24   25 1   
    30   24   32 1   
    31   24   33 1   
    32   25   26 1   
    33   25   34 1   
    34   25   35 1   
    35   26   27 1   
    36   26   36 1   
    37   26   37 1   
    38   27   38 1   
    39   27   39 1   
    40   27   40 1   
    41   41   42 1   
    42   41   49 1   
    43   42   43 1   
    44   42   45 1   
    45   42   50 1   
    46   43   44 2   
    47   43   53 1   
    48   45   46 1   
    49   45   51 1   
    50   45   52 1   
    51   46   47 1   
    52   46   48 1   
    53   53   54 1   
    54   53   57 1   
    55   54   55 1   
    56   54   58 1   
    57   54   59 1   
    58   55   56 2   
    59   55   60 1   
    60   60   61 1   
    61   60   68 1   
    62   61   62 1   
    63   61   64 1   
    64   61   69 1   
    65   62   63 2   
    66   62   72 1   
    67   64   65 1   
    68   64   70 1   
    69   64   71 1   
    70   65   66 1   
    71   65   67 1   
    72   72   73 1   
    73   72   76 1   
    74   73   74 1   
    75   73   77 1   
    76   73   78 1   
    77   74   75 2   
    78   74   79 1   
    79   79   80 1   
    80   79   86 1   
    81   80   81 1   
    82   80   83 1   
    83   80   87 1   
    84   81   82 2   
    85   81   93 1   
    86   83   84 1   
    87   83   85 1   
    88   83   88 1   
    89   84   90 1   
    90   84   91 1   
    91   84   92 1   
    92   85   89 1   
    93   93   94 1   
    94   93  101 1   
    95   94   95 1   
    96   94   97 1   
    97   94  102 1   
    98   95   96 2   
    99   95  112 1   
   100   97   98 1   
   101   97   99 1   
   102   97  103 1   
   103   98  100 1   
   104   98  104 1   
   105   98  105 1   
   106   99  106 1   
   107   99  107 1   
   108   99  108 1   
   109  100  109 1   
   110  100  110 1   
   111  100  111 1   
   112  112  113 1   
   113  112  119 1   
   114  113  114 1   
   115  113  116 1   
   116  113  120 1   
   117  114  115 2   
   118  114  126 1   
   119  116  117 1   
   120  116  118 1   
   121  116  121 1   
   122  117  123 1   
   123  117  124 1   
   124  117  125 1   
   125  118  122 1   
   126  126  127 1   
   127  126  133 1   
   128  127  128 1   
   129  127  130 1   
   130  127  134 1   
   131  128  129 2   
   132  128  140 1   
   133  130  131 1   
   134  130  132 1   
   135  130  135 1   
   136  131  137 1   
   137  131  138 1   
   138  131  139 1   
   139  132  136 1   
   140  140  141 1   
   141  140  149 1   
   142  141  142 1   
   143  141  144 1   
   144  141  150 1   
   145  142  143 2   
   146  142  162 1   
   147  144  145 1   
   148  144  151 1   
   149  144  152 1   
   150  145  146 1   
   151  145  153 1   
   152  145  154 1   
   153  146  147 1   
   154  146  155 1   
   155  146  156 1   
   156  147  148 1   
   157  147  157 1   
   158  147  158 1   
   159  148  159 1   
   160  148  160 1   
   161  148  161 1   
   162  162  163 1   
   163  162  171 1   
   164  163  164 1   
   165  163  166 1   
   166  163  172 1   
   167  164  165 2   
   168  164  177 1   
   169  166  167 1   
   170  166  173 1   
   171  166  174 1   
   172  167  168 1   
   173  167  175 1   
   174  167  176 1   
   175  168  169 1   
   176  168  170 1   
   177  177  178 1   
   178  177  182 1   
   179  178  179 1   
   180  178  180 1   
   181  178  181 1   
@<TRIPOS>SUBSTRUCTURE
     1 MOL         1 TEMP              0 ****  ****    0 ROOT
