@<TRIPOS>MOLECULE
MOL
  192   187     1     0     0
SMALL
resp


@<TRIPOS>ATOM
      1 C1          4.4740    4.8170   -2.3960 c3        1 MOL     -0.345735
      2 C2          5.1920    3.7970   -1.5030 c         1 MOL      0.772967
      3 O1          4.5270    3.3570   -0.5250 o         1 MOL     -0.619438
      4 H1          3.8870    4.2900   -3.1480 hc        1 MOL      0.083818
      5 H2          3.8130    5.4330   -1.7860 hc        1 MOL      0.083818
      6 H3          5.2110    5.4520   -2.8890 hc        1 MOL      0.083818
      7 N1          6.3660    3.2960   -1.9030 n         1 MOL     -0.704626
      8 C3          7.0170    1.9830   -1.4720 c3        1 MOL      0.300548
      9 C4          6.0660    0.8040   -1.5280 c         1 MOL      0.245809
     10 O2          5.4420    0.3520   -0.5390 o         1 MOL     -0.565482
     11 C5          7.7930    2.0780   -0.1150 c3        1 MOL     -0.165644
     12 C6          7.1080    2.8860    0.9570 c         1 MOL      0.731394
     13 O3          6.3770    2.3390    1.7870 o         1 MOL     -0.721075
     14 O4          7.3090    4.1050    0.9800 o         1 MOL     -0.721075
     15 H4          6.6950    3.7520   -2.7480 hn        1 MOL      0.323729
     16 H5          7.7510    1.7470   -2.2400 h1        1 MOL      0.037889
     17 H6          8.7870    2.4250   -0.3740 hc        1 MOL      0.035219
     18 H7          8.0400    1.1030    0.3080 hc        1 MOL      0.035219
     19 N2          5.7740    0.4500   -2.7920 n         1 MOL     -0.343369
     20 C7          4.9950   -0.7340   -3.2840 c3        1 MOL      0.059853
     21 C8          5.6640   -2.0280   -2.7370 c         1 MOL      0.344969
     22 O5          5.8800   -2.9260   -3.5460 o         1 MOL     -0.539588
     23 C9          3.4910   -0.4990   -2.9040 c3        1 MOL      0.280998
     24 C10         2.5580   -1.6330   -3.3620 c3        1 MOL     -0.030060
     25 C11         2.9910    0.8370   -3.4700 c3        1 MOL     -0.079775
     26 C12         2.2970   -1.7520   -4.9060 c3        1 MOL     -0.208280
     27 H8          6.2220    1.0700   -3.4590 hn        1 MOL      0.231438
     28 H9          5.0140   -0.8460   -4.3630 h1        1 MOL      0.040324
     29 H10         3.4090   -0.4820   -1.8170 hc        1 MOL     -0.064563
     30 H11         1.6230   -1.5720   -2.8180 hc        1 MOL      0.050875
     31 H12         2.9860   -2.5970   -3.1160 hc        1 MOL      0.050875
     32 H13         3.1360    0.8880   -4.5510 hc        1 MOL     -0.005777
     33 H14         2.0140    1.1960   -3.1590 hc        1 MOL     -0.005777
     34 H15         3.6330    1.6410   -3.1100 hc        1 MOL     -0.005777
     35 H16         1.5060   -2.4940   -5.0190 hc        1 MOL      0.029468
     36 H17         1.9220   -0.8150   -5.3160 hc        1 MOL      0.029468
     37 H18         3.1880   -2.0970   -5.4270 hc        1 MOL      0.029468
     38 N3          5.9590   -2.2360   -1.4470 n         1 MOL     -0.091329
     39 C13         6.6250   -3.5170   -1.0120 c3        1 MOL     -0.092629
     40 C14         5.6970   -4.8260   -1.0910 c         1 MOL      0.519326
     41 O6          6.1460   -5.8730   -1.6230 o         1 MOL     -0.600690
     42 C15         7.1800   -3.4800    0.4180 c3        1 MOL     -0.259793
     43 C16         8.0220   -2.2080    0.7020 c         1 MOL      0.744899
     44 O7          8.1840   -1.8360    1.8710 o         1 MOL     -0.713050
     45 O8          8.6620   -1.6360   -0.2860 o         1 MOL     -0.713050
     46 H19         5.7190   -1.6000   -0.6880 hn        1 MOL      0.256393
     47 H20         7.4800   -3.7020   -1.6670 h1        1 MOL      0.088716
     48 H21         7.6780   -4.4000    0.7290 hc        1 MOL      0.089440
     49 H22         6.2980   -3.5640    1.0360 hc        1 MOL      0.089440
     50 N4          4.4010   -4.8310   -0.7480 n         1 MOL     -0.376451
     51 C17         3.6090   -3.8070   -0.0950 c3        1 MOL      0.021859
     52 C18         2.3160   -4.3690    0.4740 c         1 MOL      0.602693
     53 O9          1.9350   -5.4250    0.0950 o         1 MOL     -0.586140
     54 H23         3.9790   -5.7380   -0.8900 hn        1 MOL      0.260883
     55 H24         3.3160   -3.1260   -0.8960 h1        1 MOL      0.038675
     56 H25         4.1770   -3.2260    0.6390 h1        1 MOL      0.038675
     57 N5          1.6910   -3.8140    1.5180 n         1 MOL     -0.329076
     58 C19         1.8290   -2.5950    2.2740 c3        1 MOL      0.077726
     59 C20         1.9790   -1.4030    1.3410 c         1 MOL      0.495205
     60 O10         3.0500   -0.7900    1.1080 o         1 MOL     -0.610033
     61 C21         2.8460   -2.5500    3.4020 c3        1 MOL     -0.741189
     62 C22         2.7650   -3.8860    4.2250 c         1 MOL      0.920980
     63 O11         3.3960   -4.8860    3.9860 o         1 MOL     -0.771366
     64 O12         1.9780   -3.9390    5.1580 o         1 MOL     -0.771366
     65 H26         1.0230   -4.4540    1.9210 hn        1 MOL      0.261341
     66 H27         0.8620   -2.4570    2.7560 h1        1 MOL      0.087330
     67 H28         2.5690   -1.6910    4.0040 hc        1 MOL      0.211339
     68 H29         3.8660   -2.4130    3.0540 hc        1 MOL      0.211339
     69 N6          0.9560   -0.8750    0.7190 n         1 MOL     -0.181445
     70 C23        -0.4400   -1.2760    0.8710 c3        1 MOL     -0.063093
     71 C24        -0.8120   -2.5600    0.0410 c         1 MOL      0.339428
     72 O13        -0.0910   -3.0550   -0.8630 o         1 MOL     -0.492298
     73 H30         1.2060   -0.1720    0.0490 hn        1 MOL      0.167062
     74 H31        -1.0380   -0.3910    0.6780 h1        1 MOL      0.072745
     75 H32        -0.7380   -1.4510    1.9100 h1        1 MOL      0.072745
     76 N7         -2.0230   -2.9730    0.1810 n         1 MOL     -0.320371
     77 C25        -2.6650   -3.9920   -0.5030 c3        1 MOL      0.149149
     78 C26        -3.3710   -3.6140   -1.8130 c         1 MOL      0.359523
     79 O14        -3.3970   -4.3860   -2.7400 o         1 MOL     -0.512245
     80 C27        -3.5300   -4.7930    0.4730 c3        1 MOL     -0.091830
     81 C28        -4.7480   -4.1690    1.2560 c3        1 MOL     -0.155627
     82 C29        -5.8030   -3.6470    0.2960 c         1 MOL      0.530165
     83 N8         -6.7090   -4.5110   -0.1810 n         1 MOL     -0.648951
     84 O15        -5.9890   -2.4920    0.0260 o         1 MOL     -0.481847
     85 H33        -2.6870   -2.4090    0.6850 hn        1 MOL      0.259186
     86 H34        -1.9940   -4.7560   -0.8860 h1        1 MOL      0.110763
     87 H35        -2.8380   -5.1700    1.2170 hc        1 MOL      0.031617
     88 H36        -3.9790   -5.5770   -0.1360 hc        1 MOL      0.031617
     89 H37        -4.3980   -3.3670    1.9080 hc        1 MOL      0.067660
     90 H38        -5.2360   -4.9080    1.8860 hc        1 MOL      0.067660
     91 H39        -6.5310   -5.4760    0.0450 hn        1 MOL      0.321056
     92 H40        -7.4610   -4.1890   -0.7760 hn        1 MOL      0.321056
     93 N9         -3.8810   -2.3450   -2.0250 n         1 MOL     -0.204975
     94 C30        -4.1530   -1.6540   -3.3000 c3        1 MOL     -0.136196
     95 C31        -5.3210   -0.6450   -3.2430 c         1 MOL      0.318181
     96 O16        -5.6290    0.0850   -4.1950 o         1 MOL     -0.523919
     97 C32        -2.8360   -0.8500   -3.6870 c3        1 MOL      0.198696
     98 C33        -1.5000   -1.6840   -3.7970 c3        1 MOL     -0.177947
     99 C34        -2.6040    0.3410   -2.7650 c3        1 MOL     -0.177947
    100 H41        -3.8930   -1.7800   -1.1800 hn        1 MOL      0.175216
    101 H42        -4.3100   -2.4300   -4.0590 h1        1 MOL      0.134115
    102 H43        -2.9960   -0.4640   -4.6960 hc        1 MOL     -0.021427
    103 H44        -0.5860   -1.1190   -3.6210 hc        1 MOL      0.049764
    104 H45        -1.4010   -2.3910   -2.9700 hc        1 MOL      0.049764
    105 H46        -1.4480   -2.2160   -4.7420 hc        1 MOL      0.049764
    106 H47        -3.4710    0.9800   -2.5910 hc        1 MOL      0.049764
    107 H48        -2.4020   -0.0580   -1.7690 hc        1 MOL      0.049764
    108 H49        -1.8200    0.9140   -3.2480 hc        1 MOL      0.049764
    109 N10        -6.1250   -0.6260   -2.1700 n         1 MOL     -0.026776
    110 C35        -7.4400    0.0960   -1.9950 c3        1 MOL     -0.030354
    111 C36        -7.3310    1.3420   -1.0980 c         1 MOL      0.459810
    112 O17        -8.2180    2.1880   -0.9320 o         1 MOL     -0.543036
    113 C37        -8.5320   -0.7360   -1.3870 c3        1 MOL     -0.140586
    114 C38        -8.9460   -2.0100   -1.9840 c         1 MOL      0.624080
    115 N11        -9.1120   -2.1060   -3.2720 n         1 MOL     -0.791041
    116 O18        -8.9970   -2.9730   -1.2480 o         1 MOL     -0.573427
    117 H50        -6.0020   -1.3130   -1.4400 hn        1 MOL      0.099972
    118 H51        -7.7850    0.4410   -2.9650 h1        1 MOL      0.063084
    119 H52        -9.4210   -0.1250   -1.2020 hc        1 MOL      0.068595
    120 H53        -8.1760   -1.0030   -0.3940 hc        1 MOL      0.068595
    121 H54        -8.7570   -1.4010   -3.8980 hn        1 MOL      0.372748
    122 H55        -9.5320   -2.9860   -3.5330 hn        1 MOL      0.372748
    123 N12        -6.2100    1.4840   -0.3470 n         1 MOL     -0.399050
    124 C39        -5.9870    2.6390    0.5310 c3        1 MOL      0.357981
    125 C40        -4.5390    2.9280    0.6640 c         1 MOL      0.279716
    126 O19        -3.6410    2.1820    0.2250 o         1 MOL     -0.437058
    127 C41        -6.6880    2.4210    1.8890 c3        1 MOL     -0.151718
    128 C42        -6.6200    0.9530    2.4510 ca        1 MOL      0.150682
    129 C43        -5.3910    0.5110    2.9820 ca        1 MOL     -0.220588
    130 C44        -7.8090    0.1810    2.6240 ca        1 MOL     -0.220588
    131 C45        -5.2780   -0.7100    3.6130 ca        1 MOL     -0.278662
    132 C46        -7.7160   -1.0710    3.3000 ca        1 MOL     -0.278662
    133 C47        -6.4500   -1.5190    3.6940 ca        1 MOL      0.444563
    134 O20        -6.2640   -2.7820    4.1230 oh        1 MOL     -0.631723
    135 H56        -5.4580    0.8220   -0.3800 hn        1 MOL      0.217072
    136 H57        -6.3980    3.5410    0.0670 h1        1 MOL      0.016141
    137 H58        -7.7400    2.6140    1.6840 hc        1 MOL      0.032608
    138 H59        -6.4120    3.1360    2.6610 hc        1 MOL      0.032608
    139 H60        -4.5380    1.1660    3.0570 ha        1 MOL      0.149435
    140 H61        -8.7400    0.5690    2.2330 ha        1 MOL      0.149435
    141 H62        -4.3190   -0.9870    4.0310 ha        1 MOL      0.153270
    142 H63        -8.5520   -1.7490    3.4200 ha        1 MOL      0.153270
    143 H64        -5.3550   -3.0810    4.2640 ho        1 MOL      0.451697
    144 N13        -4.2680    4.0320    1.3830 n         1 MOL     -0.546993
    145 C48        -2.9820    4.5390    1.9080 c3        1 MOL      0.230979
    146 C49        -1.9180    5.0210    0.9050 c         1 MOL      0.621086
    147 O21        -1.3280    6.0040    1.2390 o         1 MOL     -0.577349
    148 C50        -2.5080    3.7890    3.1810 c3        1 MOL     -0.034819
    149 C51        -1.6490    2.5620    2.8540 c3        1 MOL     -0.116297
    150 C52        -1.2200    1.7230    4.0460 c         1 MOL      0.610369
    151 O22        -1.8850    0.7500    4.4190 o         1 MOL     -0.672589
    152 O23        -0.2180    2.1110    4.6990 o         1 MOL     -0.672589
    153 H65        -5.0470    4.6340    1.5590 hn        1 MOL      0.287707
    154 H66        -3.2280    5.4910    2.3650 h1        1 MOL     -0.027255
    155 H67        -3.4030    3.5570    3.7620 hc        1 MOL      0.042192
    156 H68        -1.9110    4.4810    3.7790 hc        1 MOL      0.042192
    157 H69        -0.8600    2.7500    2.1210 hc        1 MOL      0.009497
    158 H70        -2.3190    1.9130    2.2950 hc        1 MOL      0.009497
    159 N14        -1.6720    4.3500   -0.2210 n         1 MOL     -0.593379
    160 C53        -0.4780    4.7690   -1.0170 c3        1 MOL     -0.036482
    161 C54        -0.6720    5.9330   -2.0280 c         1 MOL      0.452932
    162 O24         0.2010    6.2180   -2.8240 o         1 MOL     -0.528423
    163 C55        -0.0610    3.5050   -1.8470 c3        1 MOL     -0.018915
    164 C56        -0.0070    2.1240   -1.1530 c3        1 MOL      0.230318
    165 C57         1.2410    2.1090   -0.2050 c         1 MOL      0.571338
    166 O25         1.3160    2.8720    0.7300 o         1 MOL     -0.624727
    167 O26         2.2390    1.3740   -0.3840 o         1 MOL     -0.624727
    168 H71        -2.1800    3.4890   -0.3860 hn        1 MOL      0.329158
    169 H72         0.3790    5.0440   -0.4060 h1        1 MOL      0.141386
    170 H73         0.8250    3.6640   -2.4620 hc        1 MOL      0.015978
    171 H74        -0.8840    3.4340   -2.5520 hc        1 MOL      0.015978
    172 H75         0.0570    1.3630   -1.9310 hc        1 MOL     -0.081914
    173 H76        -0.9460    1.9620   -0.6180 hc        1 MOL     -0.081914
    174 N15        -1.7750    6.6310   -1.8590 n         1 MOL     -0.212615
    175 C58        -2.2800    7.7730   -2.6930 c3        1 MOL     -0.131620
    176 H77        -3.0940    7.4270   -3.3290 h1        1 MOL      0.070152
    177 H78        -2.6430    8.5680   -2.0410 h1        1 MOL      0.070152
    178 H79        -1.4700    8.1550   -3.3150 h1        1 MOL      0.070152
    179 H80        -2.4060    6.3970   -1.1140 hn        1 MOL      0.204468
    180 Ca1         3.8960    1.5900    1.4630 Ca        1 MOL      1.782258
    181 O27         1.5730    1.6790    2.9450 oh        1 MOL     -0.851471
    182 O28         6.0110   -0.3890    2.3820 oh        1 MOL     -0.851471
    183 H81         1.1340    1.6800    3.7890 ho        1 MOL      0.404217
    184 H82         6.3970    0.4780    2.2690 ho        1 MOL      0.404217
    185 H83         1.0190    2.2150    2.3690 ho        1 MOL      0.404217
    186 H84         6.7030   -1.0040    2.1140 ho        1 MOL      0.404217
    187 O29         4.3140    1.2970    4.1600 oh        1 MOL     -0.851471
    188 H85         3.8460    1.7860    4.8350 ho        1 MOL      0.404217
    189 H86         5.1450    1.0690    4.5640 ho        1 MOL      0.404217
    190 O30         3.8890    4.4560    2.1870 oh        1 MOL     -0.851471
    191 H87         4.6150    5.0670    2.0260 ho        1 MOL      0.404217
    192 H88         3.1480    4.8470    1.7180 ho        1 MOL      0.404217
@<TRIPOS>BOND
     1    1    2 1   
     2    1    4 1   
     3    1    5 1   
     4    1    6 1   
     5    2    3 2   
     6    2    7 1   
     7    7    8 1   
     8    7   15 1   
     9    8    9 1   
    10    8   11 1   
    11    8   16 1   
    12    9   10 2   
    13    9   19 1   
    14   11   12 1   
    15   11   17 1   
    16   11   18 1   
    17   12   13 1   
    18   12   14 1   
    19   19   20 1   
    20   19   27 1   
    21   20   21 1   
    22   20   23 1   
    23   20   28 1   
    24   21   22 2   
    25   21   38 1   
    26   23   24 1   
    27   23   25 1   
    28   23   29 1   
    29   24   26 1   
    30   24   30 1   
    31   24   31 1   
    32   25   32 1   
    33   25   33 1   
    34   25   34 1   
    35   26   35 1   
    36   26   36 1   
    37   26   37 1   
    38   38   39 1   
    39   38   46 1   
    40   39   40 1   
    41   39   42 1   
    42   39   47 1   
    43   40   41 2   
    44   40   50 1   
    45   42   43 1   
    46   42   48 1   
    47   42   49 1   
    48   43   44 1   
    49   43   45 1   
    50   50   51 1   
    51   50   54 1   
    52   51   52 1   
    53   51   55 1   
    54   51   56 1   
    55   52   53 2   
    56   52   57 1   
    57   57   58 1   
    58   57   65 1   
    59   58   59 1   
    60   58   61 1   
    61   58   66 1   
    62   59   60 2   
    63   59   69 1   
    64   61   62 1   
    65   61   67 1   
    66   61   68 1   
    67   62   63 1   
    68   62   64 1   
    69   69   70 1   
    70   69   73 1   
    71   70   71 1   
    72   70   74 1   
    73   70   75 1   
    74   71   72 2   
    75   71   76 1   
    76   76   77 1   
    77   76   85 1   
    78   77   78 1   
    79   77   80 1   
    80   77   86 1   
    81   78   79 2   
    82   78   93 1   
    83   80   81 1   
    84   80   87 1   
    85   80   88 1   
    86   81   82 1   
    87   81   89 1   
    88   81   90 1   
    89   82   83 1   
    90   82   84 2   
    91   83   91 1   
    92   83   92 1   
    93   93   94 1   
    94   93  100 1   
    95   94   95 1   
    96   94   97 1   
    97   94  101 1   
    98   95   96 2   
    99   95  109 1   
   100   97   98 1   
   101   97   99 1   
   102   97  102 1   
   103   98  103 1   
   104   98  104 1   
   105   98  105 1   
   106   99  106 1   
   107   99  107 1   
   108   99  108 1   
   109  109  110 1   
   110  109  117 1   
   111  110  111 1   
   112  110  113 1   
   113  110  118 1   
   114  111  112 2   
   115  111  123 1   
   116  113  114 1   
   117  113  119 1   
   118  113  120 1   
   119  114  115 1   
   120  114  116 2   
   121  115  121 1   
   122  115  122 1   
   123  123  124 1   
   124  123  135 1   
   125  124  125 1   
   126  124  127 1   
   127  124  136 1   
   128  125  126 2   
   129  125  144 1   
   130  127  128 1   
   131  127  137 1   
   132  127  138 1   
   133  128  129 ar  
   134  128  130 ar  
   135  129  131 ar  
   136  129  139 1   
   137  130  132 ar  
   138  130  140 1   
   139  131  133 ar  
   140  131  141 1   
   141  132  133 ar  
   142  132  142 1   
   143  133  134 1   
   144  134  143 1   
   145  144  145 1   
   146  144  153 1   
   147  145  146 1   
   148  145  148 1   
   149  145  154 1   
   150  146  147 2   
   151  146  159 1   
   152  148  149 1   
   153  148  155 1   
   154  148  156 1   
   155  149  150 1   
   156  149  157 1   
   157  149  158 1   
   158  150  151 1   
   159  150  152 1   
   160  159  160 1   
   161  159  168 1   
   162  160  161 1   
   163  160  163 1   
   164  160  169 1   
   165  161  162 2   
   166  161  174 1   
   167  163  164 1   
   168  163  170 1   
   169  163  171 1   
   170  164  165 1   
   171  164  172 1   
   172  164  173 1   
   173  165  166 1   
   174  165  167 1   
   175  174  175 1   
   176  174  179 1   
   177  175  176 1   
   178  175  177 1   
   179  175  178 1   
   180  181  183 1   
   181  181  185 1   
   182  182  184 1   
   183  182  186 1   
   184  187  188 1   
   185  187  189 1   
   186  190  191 1   
   187  190  192 1   
@<TRIPOS>SUBSTRUCTURE
     1 MOL         1 TEMP              0 ****  ****    0 ROOT
