@<TRIPOS>MOLECULE
MOL
  181   177     1     0     0
SMALL
resp


@<TRIPOS>ATOM
      1 C1         -4.6340   -1.9110   -3.0460 c3        1 MOL     -0.417181
      2 C2         -5.9320   -1.2020   -2.5420 c         1 MOL      0.709717
      3 O1         -5.7890   -0.0530   -2.1250 o         1 MOL     -0.607571
      4 H1         -4.4500   -1.6380   -4.0850 hc        1 MOL      0.112190
      5 H2         -3.7880   -1.6000   -2.4320 hc        1 MOL      0.112190
      6 H3         -4.7580   -2.9920   -2.9720 hc        1 MOL      0.112190
      7 N1         -7.1140   -1.8120   -2.5290 n         1 MOL     -0.647406
      8 C3         -8.4480   -1.1960   -2.2600 c3        1 MOL      0.370274
      9 C4         -8.6670   -0.9840   -0.7660 c         1 MOL      0.524890
     10 O2         -8.7440   -1.9270    0.0600 o         1 MOL     -0.552246
     11 C5         -9.4780   -2.0580   -2.9030 c3        1 MOL     -0.417335
     12 C6        -10.8770   -1.4680   -2.7870 c         1 MOL      0.758132
     13 O3        -11.1880   -0.6040   -1.9580 o         1 MOL     -0.732301
     14 O4        -11.7800   -1.9660   -3.5030 o         1 MOL     -0.732301
     15 H4         -7.0050   -2.6960   -2.9970 hn        1 MOL      0.300677
     16 H5         -8.4810   -0.2200   -2.7440 h1        1 MOL     -0.013519
     17 H6         -9.5170   -3.0470   -2.4630 hc        1 MOL      0.078424
     18 H7         -9.2160   -2.1810   -3.9500 hc        1 MOL      0.078424
     19 N2         -8.6120    0.2840   -0.3690 n         1 MOL     -0.294198
     20 C7         -8.6020    0.7150    0.9660 c3        1 MOL      0.154792
     21 C8         -7.3620    0.2520    1.7220 c         1 MOL      0.392979
     22 O5         -7.3990    0.2020    2.9260 o         1 MOL     -0.495148
     23 C9         -8.7300    2.2480    0.9780 c3        1 MOL     -0.263822
     24 H8         -8.8620    1.0080   -1.0120 hn        1 MOL      0.213145
     25 H9         -9.4410    0.3670    1.5700 h1        1 MOL      0.046407
     26 H10        -7.8780    2.7190    0.5020 hc        1 MOL      0.064614
     27 H11        -9.5950    2.5910    0.4030 hc        1 MOL      0.064614
     28 H12        -8.7260    2.5610    2.0230 hc        1 MOL      0.064614
     29 N3         -6.2600   -0.0080    0.9830 n         1 MOL     -0.251247
     30 C10        -4.9140   -0.4390    1.4200 c3        1 MOL      0.160193
     31 C11        -4.5880    0.0440    2.8930 c         1 MOL      0.409161
     32 O6         -4.8700   -0.7120    3.8150 o         1 MOL     -0.486027
     33 C12        -4.8160   -2.0340    1.4240 c3        1 MOL     -0.133724
     34 C13        -3.4750   -2.5900    1.8540 c         1 MOL      0.733231
     35 O7         -3.4270   -3.7720    2.3120 o         1 MOL     -0.754542
     36 O8         -2.4580   -1.9800    1.5070 o         1 MOL     -0.754542
     37 H13        -6.3970    0.1350   -0.0010 hn        1 MOL      0.115377
     38 H14        -4.0970   -0.0190    0.8370 h1        1 MOL      0.023392
     39 H15        -5.1740   -2.3770    0.4580 hc        1 MOL      0.036745
     40 H16        -5.5650   -2.4340    2.1110 hc        1 MOL      0.036745
     41 N4         -4.1250    1.2430    3.1060 n         1 MOL     -0.268421
     42 C14        -3.9760    1.8360    4.3820 c3        1 MOL      0.073274
     43 C15        -2.7930    2.8480    4.4040 c         1 MOL      0.519037
     44 O9         -2.9750    3.9770    4.7700 o         1 MOL     -0.542549
     45 H17        -4.0240    1.8100    2.2730 hn        1 MOL      0.203409
     46 H18        -3.7800    1.0300    5.1010 h1        1 MOL      0.035244
     47 H19        -4.8770    2.2980    4.7900 h1        1 MOL      0.035244
     48 N5         -1.5810    2.5580    3.8280 n         1 MOL     -0.432607
     49 C16        -0.4610    3.5080    3.7720 c3        1 MOL      0.138036
     50 C17        -0.5760    4.5640    2.5970 c         1 MOL      0.564787
     51 O10        -1.3610    4.3130    1.6610 o         1 MOL     -0.495070
     52 C18         0.8350    2.7150    3.8530 c3        1 MOL     -0.389197
     53 C19         0.8390    1.8380    5.1010 c         1 MOL      0.699473
     54 N6          0.9780    0.5130    4.9860 n         1 MOL     -0.805078
     55 O11         0.8170    2.3170    6.2770 o         1 MOL     -0.580854
     56 H20        -1.3970    1.6820    3.3640 hn        1 MOL      0.249403
     57 H21        -0.6050    4.1650    4.6270 h1        1 MOL      0.043663
     58 H22         1.7010    3.3750    3.8920 hc        1 MOL      0.108397
     59 H23         0.9170    2.0260    3.0080 hc        1 MOL      0.108397
     60 H24         1.0910    0.1120    4.0610 hn        1 MOL      0.377941
     61 H25         0.9700   -0.0620    5.8160 hn        1 MOL      0.377941
     62 N7         -0.0330    5.7180    2.8200 n         1 MOL     -0.456292
     63 C20        -0.1720    6.7560    1.7260 c3        1 MOL     -0.025662
     64 C21         0.8310    6.5680    0.6290 c         1 MOL      0.480320
     65 O12         1.9650    6.1370    0.7890 o         1 MOL     -0.505861
     66 H26         0.5050    5.8470    3.6620 hn        1 MOL      0.312275
     67 H27        -0.1270    7.7750    2.1100 h1        1 MOL      0.081403
     68 H28        -1.1810    6.5840    1.3500 h1        1 MOL      0.081403
     69 N8          0.5410    6.8710   -0.6360 n         1 MOL     -0.302745
     70 C22         1.5400    7.0090   -1.7500 c3        1 MOL     -0.366725
     71 C23         2.0280    5.7170   -2.3980 c         1 MOL      0.507085
     72 O13         3.1620    5.7350   -2.8530 o         1 MOL     -0.544572
     73 C24         1.0720    8.0290   -2.7750 c3        1 MOL      0.584354
     74 C25        -0.0440    7.6020   -3.6550 c3        1 MOL     -0.401742
     75 O14         0.5710    9.1480   -2.0980 oh        1 MOL     -0.658472
     76 H29        -0.3660    7.2700   -0.8470 hn        1 MOL      0.215589
     77 H30         2.4270    7.4380   -1.2800 h1        1 MOL      0.191240
     78 H31         1.8810    8.3160   -3.4550 h1        1 MOL      0.005767
     79 H32        -0.3560    9.0020   -1.8860 ho        1 MOL      0.381485
     80 H33        -0.4460    8.5310   -4.0600 hc        1 MOL      0.085720
     81 H34         0.2870    7.0930   -4.5630 hc        1 MOL      0.085720
     82 H35        -0.6340    6.8190   -3.1760 hc        1 MOL      0.085720
     83 N9          1.2700    4.5820   -2.3260 n         1 MOL     -0.067826
     84 C26         1.7060    3.2790   -2.7040 c3        1 MOL     -0.157227
     85 C27         1.3530    2.2360   -1.7260 c         1 MOL      0.473027
     86 O15         0.3520    2.3060   -0.9980 o         1 MOL     -0.517679
     87 C28         1.1320    2.9330   -4.2200 c3        1 MOL      0.355508
     88 C29        -0.3930    3.0570   -4.2330 c3        1 MOL      0.040010
     89 C30         1.7880    3.7560   -5.3140 c3        1 MOL     -0.321176
     90 C31        -0.9250    2.2480   -5.3710 c3        1 MOL     -0.088373
     91 H36         0.3080    4.5610   -2.0200 hn        1 MOL      0.128915
     92 H37         2.7900    3.1870   -2.7980 h1        1 MOL      0.077335
     93 H38         1.3990    1.8960   -4.4280 hc        1 MOL     -0.074233
     94 H39        -0.5940    4.1290   -4.3460 hc        1 MOL     -0.000195
     95 H40        -0.7370    2.7030   -3.2700 hc        1 MOL     -0.000195
     96 H41         1.6510    3.3610   -6.3290 hc        1 MOL      0.057724
     97 H42         1.3360    4.7370   -5.1930 hc        1 MOL      0.057724
     98 H43         2.8400    3.8210   -5.0540 hc        1 MOL      0.057724
     99 H44        -0.5360    2.5780   -6.3280 hc        1 MOL      0.015167
    100 H45        -0.6550    1.2000   -5.3460 hc        1 MOL      0.015167
    101 H46        -2.0120    2.3940   -5.3950 hc        1 MOL      0.015167
    102 N10         2.0870    1.1290   -1.6910 n         1 MOL     -0.415838
    103 C32         1.8650   -0.0380   -0.8200 c3        1 MOL      0.155844
    104 C33         3.1460   -0.4290   -0.0490 c         1 MOL      0.343517
    105 O16         3.4760   -1.6200   -0.0030 o         1 MOL     -0.388018
    106 C34         1.2240   -1.1750   -1.6570 c3        1 MOL     -0.305090
    107 C35         0.5070   -2.2690   -0.8610 c         1 MOL      0.906395
    108 O17         0.4160   -2.2470    0.3610 o         1 MOL     -0.805998
    109 O18        -0.0420   -3.2400   -1.4070 o         1 MOL     -0.805998
    110 H47         2.8790    1.1010   -2.3170 hn        1 MOL      0.248636
    111 H48         1.1000    0.2220   -0.0870 h1        1 MOL      0.109835
    112 H49         1.9170   -1.6020   -2.3870 hc        1 MOL      0.093195
    113 H50         0.4080   -0.7300   -2.2100 hc        1 MOL      0.093195
    114 N11         4.0030    0.5550    0.2970 n         1 MOL     -0.399259
    115 C36         5.3840    0.2830    0.8600 c3        1 MOL      0.119625
    116 C37         6.2300   -0.6510   -0.0750 c         1 MOL      0.288380
    117 O19         6.3460   -0.3600   -1.2390 o         1 MOL     -0.466999
    118 C38         6.1730    1.5470    1.1590 c3        1 MOL     -0.234691
    119 C39         7.6460    1.3470    1.4490 ca        1 MOL      0.127538
    120 C40         8.0650    0.9530    2.7230 ca        1 MOL     -0.204499
    121 C41         8.5800    1.4380    0.4060 ca        1 MOL     -0.204499
    122 C42         9.4270    0.7080    2.9390 ca        1 MOL     -0.032599
    123 C43         9.9710    1.2150    0.6220 ca        1 MOL     -0.032599
    124 C44        10.4010    0.9050    1.9280 ca        1 MOL     -0.222636
    125 H51         3.8080    1.5410    0.1830 hn        1 MOL      0.262135
    126 H52         5.1970   -0.3040    1.7590 h1        1 MOL      0.047054
    127 H53         5.7640    2.0360    2.0440 hc        1 MOL      0.103297
    128 H54         6.0840    2.3020    0.3720 hc        1 MOL      0.103297
    129 H55         7.3450    0.8260    3.5130 ha        1 MOL      0.129646
    130 H56         8.2470    1.5450   -0.6080 ha        1 MOL      0.129646
    131 H57         9.7580    0.3660    3.9090 ha        1 MOL      0.096868
    132 H58        10.6370    1.3230   -0.2200 ha        1 MOL      0.096868
    133 H59        11.4660    0.7980    2.0770 ha        1 MOL      0.127899
    134 N12         6.7100   -1.8020    0.4610 n         1 MOL      0.006061
    135 C45         7.4080   -2.7460   -0.3920 c3        1 MOL      0.027725
    136 C46         6.4610   -3.3350   -1.4440 c         1 MOL      0.492742
    137 O20         6.9640   -3.5470   -2.5440 o         1 MOL     -0.606340
    138 C47         8.0000   -3.8920    0.4840 c3        1 MOL     -0.103977
    139 C48         7.1750   -3.8170    1.7580 c3        1 MOL     -0.036638
    140 C49         6.7400   -2.3580    1.8770 c3        1 MOL      0.022054
    141 H60         8.2330   -2.2830   -0.9290 h1        1 MOL      0.046782
    142 H61         7.8800   -4.8890    0.0730 hc        1 MOL      0.048027
    143 H62         9.0630   -3.7410    0.6850 hc        1 MOL      0.048027
    144 H63         6.2930   -4.4290    1.6120 hc        1 MOL      0.027012
    145 H64         7.7400   -3.9510    2.6820 hc        1 MOL      0.027012
    146 H65         5.7560   -2.3270    2.3380 h1        1 MOL      0.012833
    147 H66         7.4670   -1.7660    2.4390 h1        1 MOL      0.012833
    148 N13         5.1500   -3.4660   -1.2310 n         1 MOL     -0.258112
    149 C50         4.2250   -4.2830   -2.0530 c3        1 MOL     -0.257187
    150 C51         3.7830   -3.6040   -3.3920 c         1 MOL      0.454188
    151 O21         2.8810   -4.0920   -3.9870 o         1 MOL     -0.501982
    152 C52         3.0030   -4.7590   -1.2710 c3        1 MOL      0.424096
    153 C53         3.3030   -5.6660   -0.0290 c3        1 MOL     -0.403082
    154 C54         2.0050   -5.9550    0.7070 c         1 MOL      0.764506
    155 O22         1.5040   -7.0550    0.5310 o         1 MOL     -0.713447
    156 O23         1.4900   -5.0660    1.4590 o         1 MOL     -0.713447
    157 H67         4.7750   -2.9940   -0.4120 hn        1 MOL      0.251601
    158 H68         4.7590   -5.1710   -2.3800 h1        1 MOL      0.122784
    159 H69         2.3020   -5.3700   -1.8390 hc        1 MOL     -0.091190
    160 H70         2.5320   -3.8720   -0.8490 hc        1 MOL     -0.091190
    161 H71         4.0550   -5.1520    0.5730 hc        1 MOL      0.060849
    162 H72         3.6570   -6.6210   -0.4320 hc        1 MOL      0.060849
    163 N14         4.4870   -2.5530   -3.8920 n         1 MOL     -0.180686
    164 C55         4.2180   -1.9130   -5.1930 c3        1 MOL     -0.260554
    165 H73         3.9570   -2.6770   -5.9260 h1        1 MOL      0.102384
    166 H74         3.3910   -1.2120   -5.0900 h1        1 MOL      0.102384
    167 H75         5.1090   -1.3790   -5.5270 h1        1 MOL      0.102384
    168 H76         5.1780   -2.1650   -3.2700 hn        1 MOL      0.229970
    169 Ca1        -1.0550   -4.2370    0.9810 Ca        1 MOL      1.789502
    170 O24        -2.2930   -6.2370    2.0530 oh        1 MOL     -0.861606
    171 H77        -3.1800   -5.8860    2.2030 ho        1 MOL      0.415057
    172 H78        -2.3640   -7.1620    2.2730 ho        1 MOL      0.415057
    173 O25        -2.9940   -4.5600   -0.6550 oh        1 MOL     -0.861606
    174 H79        -3.7570   -5.1030   -0.4480 ho        1 MOL      0.415057
    175 H80        -2.8110   -4.7620   -1.5780 ho        1 MOL      0.415057
    176 O26        -0.4550   -6.0350   -1.0750 oh        1 MOL     -0.861606
    177 H81        -0.3520   -5.7710   -1.9950 ho        1 MOL      0.415057
    178 H82         0.3680   -6.4700   -0.8560 ho        1 MOL      0.415057
    179 O27        -0.3750   -3.9380    3.7510 oh        1 MOL     -0.861606
    180 H83        -0.8870   -3.3220    4.2810 ho        1 MOL      0.415057
    181 H84         0.4450   -4.0440    4.2250 ho        1 MOL      0.415057
@<TRIPOS>BOND
     1    1    2 1   
     2    1    4 1   
     3    1    5 1   
     4    1    6 1   
     5    2    3 2   
     6    2    7 1   
     7    7    8 1   
     8    7   15 1   
     9    8    9 1   
    10    8   11 1   
    11    8   16 1   
    12    9   10 2   
    13    9   19 1   
    14   11   12 1   
    15   11   17 1   
    16   11   18 1   
    17   12   13 1   
    18   12   14 1   
    19   19   20 1   
    20   19   24 1   
    21   20   21 1   
    22   20   23 1   
    23   20   25 1   
    24   21   22 2   
    25   21   29 1   
    26   23   26 1   
    27   23   27 1   
    28   23   28 1   
    29   29   30 1   
    30   29   37 1   
    31   30   31 1   
    32   30   33 1   
    33   30   38 1   
    34   31   32 2   
    35   31   41 1   
    36   33   34 1   
    37   33   39 1   
    38   33   40 1   
    39   34   35 1   
    40   34   36 1   
    41   41   42 1   
    42   41   45 1   
    43   42   43 1   
    44   42   46 1   
    45   42   47 1   
    46   43   44 2   
    47   43   48 1   
    48   48   49 1   
    49   48   56 1   
    50   49   50 1   
    51   49   52 1   
    52   49   57 1   
    53   50   51 2   
    54   50   62 1   
    55   52   53 1   
    56   52   58 1   
    57   52   59 1   
    58   53   54 1   
    59   53   55 2   
    60   54   60 1   
    61   54   61 1   
    62   62   63 1   
    63   62   66 1   
    64   63   64 1   
    65   63   67 1   
    66   63   68 1   
    67   64   65 2   
    68   64   69 1   
    69   69   70 1   
    70   69   76 1   
    71   70   71 1   
    72   70   73 1   
    73   70   77 1   
    74   71   72 2   
    75   71   83 1   
    76   73   74 1   
    77   73   75 1   
    78   73   78 1   
    79   74   80 1   
    80   74   81 1   
    81   74   82 1   
    82   75   79 1   
    83   83   84 1   
    84   83   91 1   
    85   84   85 1   
    86   84   87 1   
    87   84   92 1   
    88   85   86 2   
    89   85  102 1   
    90   87   88 1   
    91   87   89 1   
    92   87   93 1   
    93   88   90 1   
    94   88   94 1   
    95   88   95 1   
    96   89   96 1   
    97   89   97 1   
    98   89   98 1   
    99   90   99 1   
   100   90  100 1   
   101   90  101 1   
   102  102  103 1   
   103  102  110 1   
   104  103  104 1   
   105  103  106 1   
   106  103  111 1   
   107  104  105 2   
   108  104  114 1   
   109  106  107 1   
   110  106  112 1   
   111  106  113 1   
   112  107  108 1   
   113  107  109 1   
   114  114  115 1   
   115  114  125 1   
   116  115  116 1   
   117  115  118 1   
   118  115  126 1   
   119  116  117 2   
   120  116  134 1   
   121  118  119 1   
   122  118  127 1   
   123  118  128 1   
   124  119  120 ar  
   125  119  121 ar  
   126  120  122 ar  
   127  120  129 1   
   128  121  123 ar  
   129  121  130 1   
   130  122  124 ar  
   131  122  131 1   
   132  123  124 ar  
   133  123  132 1   
   134  124  133 1   
   135  134  135 1   
   136  134  140 1   
   137  135  136 1   
   138  135  138 1   
   139  135  141 1   
   140  136  137 2   
   141  136  148 1   
   142  138  139 1   
   143  138  142 1   
   144  138  143 1   
   145  139  140 1   
   146  139  144 1   
   147  139  145 1   
   148  140  146 1   
   149  140  147 1   
   150  148  149 1   
   151  148  157 1   
   152  149  150 1   
   153  149  152 1   
   154  149  158 1   
   155  150  151 2   
   156  150  163 1   
   157  152  153 1   
   158  152  159 1   
   159  152  160 1   
   160  153  154 1   
   161  153  161 1   
   162  153  162 1   
   163  154  155 1   
   164  154  156 1   
   165  163  164 1   
   166  163  168 1   
   167  164  165 1   
   168  164  166 1   
   169  164  167 1   
   170  170  171 1   
   171  170  172 1   
   172  173  174 1   
   173  173  175 1   
   174  176  177 1   
   175  176  178 1   
   176  179  180 1   
   177  179  181 1   
@<TRIPOS>SUBSTRUCTURE
     1 MOL         1 TEMP              0 ****  ****    0 ROOT
