@<TRIPOS>MOLECULE
MOL
  192   187     1     0     0
SMALL
resp


@<TRIPOS>ATOM
      1 C1          2.4820    7.5980   -2.7570 c3        1 MOL     -0.242281
      2 C2          2.4540    6.0980   -2.4210 c         1 MOL      0.653661
      3 O1          1.8480    5.3200   -3.2340 o         1 MOL     -0.588135
      4 H1          2.0190    7.7600   -3.7300 hc        1 MOL      0.063522
      5 H2          1.9300    8.1510   -1.9970 hc        1 MOL      0.063522
      6 H3          3.5140    7.9450   -2.7830 hc        1 MOL      0.063522
      7 N1          2.9950    5.6830   -1.2670 n         1 MOL     -0.539659
      8 C3          3.0570    4.2650   -0.8720 c3        1 MOL      0.031020
      9 C4          1.6940    3.6660   -0.3620 c         1 MOL      0.277870
     10 O2          1.4350    2.4500   -0.2580 o         1 MOL     -0.421499
     11 C5          4.0910    4.1930    0.1930 c3        1 MOL     -0.118640
     12 C6          3.9450    5.1590    1.3820 c         1 MOL      0.723892
     13 O3          4.2610    6.3360    1.1650 o         1 MOL     -0.698969
     14 O4          3.8040    4.6510    2.5420 o         1 MOL     -0.698969
     15 H4          3.3460    6.3690   -0.6200 hn        1 MOL      0.327171
     16 H5          3.4320    3.7620   -1.7690 h1        1 MOL      0.148606
     17 H6          5.0230    4.3080   -0.3540 hc        1 MOL      0.031960
     18 H7          4.0570    3.1450    0.4920 hc        1 MOL      0.031960
     19 N2          0.6360    4.4940   -0.1050 n         1 MOL     -0.372168
     20 C7         -0.7160    4.0700    0.5420 c3        1 MOL      0.248620
     21 C8         -1.7910    3.7520   -0.4940 c         1 MOL      0.348751
     22 O5         -1.7520    4.2940   -1.6180 o         1 MOL     -0.510518
     23 C9         -1.1250    5.2650    1.4590 c3        1 MOL     -0.166845
     24 C10        -0.1990    5.6680    2.5520 c3        1 MOL     -0.242512
     25 C11         0.0670    4.5180    3.5190 c3        1 MOL      0.144702
     26 C12         0.7960    4.8440    4.8340 c3        1 MOL     -0.057703
     27 N3          2.1160    5.4250    4.5750 n4        1 MOL     -0.220252
     28 H8          0.9120    5.4680   -0.1710 hn        1 MOL      0.268882
     29 H9         -0.6210    3.1790    1.1510 h1        1 MOL      0.064365
     30 H10        -2.1150    5.1030    1.8950 hc        1 MOL      0.087715
     31 H11        -1.2610    6.0570    0.7410 hc        1 MOL      0.087715
     32 H12        -0.7760    6.3450    3.1770 hc        1 MOL      0.063691
     33 H13         0.7030    6.0380    2.0670 hc        1 MOL      0.063691
     34 H14         0.6110    3.7260    3.0010 hc        1 MOL      0.012939
     35 H15        -0.9210    4.1280    3.7640 hc        1 MOL      0.012939
     36 H16         0.8930    3.9170    5.3970 hx        1 MOL      0.083757
     37 H17         0.1270    5.4900    5.4070 hx        1 MOL      0.083757
     38 H18         1.9890    6.3710    4.2750 hn        1 MOL      0.265647
     39 H19         2.5810    5.4590    5.4700 hn        1 MOL      0.265647
     40 H20         2.6840    5.0810    3.8160 hn        1 MOL      0.265647
     41 N4         -2.6920    2.8280   -0.2120 n         1 MOL     -0.451827
     42 C13        -2.8340    1.8590    0.8860 c3        1 MOL      0.085488
     43 C14        -2.9290    2.3800    2.3680 c         1 MOL      0.696142
     44 O6         -2.0230    2.1370    3.1600 o         1 MOL     -0.599044
     45 C15        -1.9670    0.5990    0.7950 c3        1 MOL     -0.088346
     46 C16        -1.8330   -0.0410   -0.5720 c         1 MOL      0.674493
     47 O7         -2.6950    0.1800   -1.4270 o         1 MOL     -0.696413
     48 O8         -0.9040   -0.8030   -0.7910 o         1 MOL     -0.696413
     49 H21        -3.1350    2.5190   -1.0590 hn        1 MOL      0.304603
     50 H22        -3.8330    1.4740    0.6960 h1        1 MOL      0.001498
     51 H23        -2.2010   -0.0890    1.6040 hc        1 MOL      0.015520
     52 H24        -0.9700    0.8910    1.1100 hc        1 MOL      0.015520
     53 N5         -3.9500    3.2620    2.6860 n         1 MOL     -0.626196
     54 C17        -5.1750    3.6640    1.9070 c3        1 MOL      0.075618
     55 C18        -6.4750    2.8430    2.1200 c         1 MOL      0.527932
     56 O9         -6.8400    2.6050    3.2570 o         1 MOL     -0.550506
     57 H25        -3.8080    3.8320    3.5090 hn        1 MOL      0.349023
     58 H26        -4.9790    3.5630    0.8420 h1        1 MOL      0.063133
     59 H27        -5.3660    4.7340    1.8570 h1        1 MOL      0.063133
     60 N6         -7.2000    2.3590    1.0670 n         1 MOL     -0.397230
     61 C19        -6.8940    2.3750   -0.3730 c3        1 MOL     -0.026577
     62 C20        -7.4090    1.0820   -0.9930 c         1 MOL      0.527632
     63 O10        -8.4450    0.5940   -0.6970 o         1 MOL     -0.457776
     64 C21        -7.4360    3.5680   -1.1580 c3        1 MOL     -0.077479
     65 C22        -8.8790    3.9580   -0.8700 c         1 MOL      0.663482
     66 O11        -9.3050    4.8470   -1.6410 o         1 MOL     -0.643010
     67 O12        -9.5490    3.4420    0.0770 o         1 MOL     -0.643010
     68 H28        -8.0560    1.8390    1.1980 hn        1 MOL      0.314352
     69 H29        -5.8280    2.4340   -0.5930 h1        1 MOL      0.014387
     70 H30        -7.2780    3.4870   -2.2360 hc        1 MOL      0.011523
     71 H31        -6.8110    4.4060   -0.8460 hc        1 MOL      0.011523
     72 N7         -6.5980    0.5180   -1.8710 n         1 MOL     -0.380255
     73 C23        -6.5080   -0.9550   -2.1790 c3        1 MOL     -0.295971
     74 C24        -6.0440   -1.8040   -0.9780 c         1 MOL      0.711402
     75 O13        -5.7690   -1.3020    0.0610 o         1 MOL     -0.516787
     76 H32        -5.8680    1.1410   -2.1840 hn        1 MOL      0.267370
     77 H33        -5.7830   -1.0920   -2.9720 h1        1 MOL      0.127350
     78 H34        -7.4480   -1.3310   -2.5890 h1        1 MOL      0.127350
     79 N8         -6.0330   -3.0910   -1.1520 n         1 MOL     -0.504539
     80 C25        -5.4910   -3.9700   -0.0930 c3        1 MOL     -0.004580
     81 C26        -3.9490   -3.8810    0.1650 c         1 MOL      0.447964
     82 O14        -3.2010   -3.8280   -0.8150 o         1 MOL     -0.450208
     83 C27        -5.9800   -5.4420   -0.2140 c3        1 MOL      0.210980
     84 C28        -4.9650   -6.2640   -0.9890 c3        1 MOL     -0.055101
     85 O15        -7.1060   -5.5440   -1.0310 oh        1 MOL     -0.547614
     86 H35        -6.2150   -3.5450   -2.0380 hn        1 MOL      0.298195
     87 H36        -5.9510   -3.5930    0.8250 h1        1 MOL      0.071064
     88 H37        -5.9620   -5.9780    0.7400 h1        1 MOL      0.016428
     89 H38        -7.8190   -5.0960   -0.5710 ho        1 MOL      0.378090
     90 H39        -4.1130   -6.6240   -0.4090 hc        1 MOL      0.027246
     91 H40        -5.4040   -7.1870   -1.3590 hc        1 MOL      0.027246
     92 H41        -4.7550   -5.7220   -1.9150 hc        1 MOL      0.027246
     93 N9         -3.5130   -4.0440    1.4690 n         1 MOL     -0.329072
     94 C29        -2.1540   -3.8390    1.9550 c3        1 MOL     -0.252797
     95 C30        -1.2430   -5.0200    1.5090 c         1 MOL      0.432870
     96 O16        -1.5820   -6.2170    1.5380 o         1 MOL     -0.508502
     97 C31        -2.2740   -3.8470    3.5420 c3        1 MOL      0.069927
     98 C32        -3.0090   -2.5340    3.9790 c3        1 MOL     -0.021472
     99 C33        -0.8810   -3.9030    4.2310 c3        1 MOL     -0.175883
    100 C34        -3.2710   -2.5320    5.5000 c3        1 MOL     -0.211372
    101 H42        -4.2140   -4.2340    2.1630 hn        1 MOL      0.264964
    102 H43        -1.7510   -2.9180    1.5250 h1        1 MOL      0.167886
    103 H44        -2.8880   -4.6930    3.8560 hc        1 MOL      0.064317
    104 H45        -3.9190   -2.4600    3.3910 hc        1 MOL      0.056160
    105 H46        -2.4910   -1.5930    3.8090 hc        1 MOL      0.056160
    106 H47        -0.9340   -3.9100    5.3160 hc        1 MOL      0.055864
    107 H48        -0.3660   -4.8230    3.9550 hc        1 MOL      0.055864
    108 H49        -0.3500   -3.0230    3.8790 hc        1 MOL      0.055864
    109 H50        -2.3870   -2.7630    6.0840 hc        1 MOL      0.058812
    110 H51        -3.5940   -1.5240    5.7920 hc        1 MOL      0.058812
    111 H52        -4.0930   -3.2390    5.6560 hc        1 MOL      0.058812
    112 N10        -0.1370   -4.7310    0.8400 n         1 MOL     -0.168233
    113 C35         0.8500   -5.6780    0.2640 c3        1 MOL     -0.235511
    114 C36         2.3440   -5.3650    0.6370 c         1 MOL      0.566761
    115 O17         3.1520   -6.2470    0.5700 o         1 MOL     -0.492006
    116 C37         0.6370   -5.6030   -1.2790 c3        1 MOL      0.530204
    117 C38         0.5860   -4.1530   -1.8980 c3        1 MOL     -0.328434
    118 O18        -0.5350   -6.1550   -1.6960 oh        1 MOL     -0.624932
    119 H53         0.0510   -3.7460    0.7370 hn        1 MOL      0.177510
    120 H54         0.6420   -6.6960    0.6100 h1        1 MOL      0.140599
    121 H55         1.4380   -6.2280   -1.6680 h1        1 MOL      0.010198
    122 H56        -1.2330   -5.6190   -1.3000 ho        1 MOL      0.367429
    123 H57         1.1760   -3.4670   -1.3000 hc        1 MOL      0.058884
    124 H58         0.9800   -4.2060   -2.9180 hc        1 MOL      0.058884
    125 H59        -0.4110   -3.7370   -2.0490 hc        1 MOL      0.058884
    126 N11         2.5700   -4.0790    0.9860 n         1 MOL     -0.545134
    127 C39         3.9090   -3.4660    1.2920 c3        1 MOL      0.135711
    128 C40         5.0150   -3.5700    0.2120 c         1 MOL      0.315962
    129 O19         4.9510   -4.4570   -0.6650 o         1 MOL     -0.390577
    130 C41         4.3450   -3.7720    2.7130 c3        1 MOL      0.320462
    131 C42         3.3470   -3.4320    3.7370 c3        1 MOL     -0.146753
    132 O20         5.5290   -3.2010    3.2740 oh        1 MOL     -0.633948
    133 H60         1.7750   -3.4740    0.8340 hn        1 MOL      0.306123
    134 H61         3.8030   -2.3840    1.4030 h1        1 MOL      0.019952
    135 H62         4.5450   -4.8470    2.7180 h1        1 MOL      0.014094
    136 H63         6.2040   -3.8670    3.1510 ho        1 MOL      0.382404
    137 H64         3.1740   -2.3520    3.7330 hc        1 MOL      0.038416
    138 H65         2.3670   -3.8890    3.6070 hc        1 MOL      0.038416
    139 H66         3.7060   -3.6540    4.7440 hc        1 MOL      0.038416
    140 N12         6.0110   -2.6650    0.3040 n         1 MOL     -0.335187
    141 C43         7.1160   -2.5030   -0.6240 c3        1 MOL      0.078180
    142 C44         6.7950   -1.5220   -1.7270 c         1 MOL      0.376591
    143 O21         7.4090   -1.4970   -2.8310 o         1 MOL     -0.515606
    144 C45         8.4080   -2.2430    0.1720 c3        1 MOL     -0.318350
    145 C46         8.3970   -0.9110    0.9470 c3        1 MOL      0.242426
    146 C47         9.7080   -0.7030    1.8520 c3        1 MOL      0.066789
    147 C48         9.7470    0.5900    2.6330 c3        1 MOL     -0.106866
    148 N13         8.3800    1.0620    2.9700 n4        1 MOL     -0.058192
    149 H67         5.9630   -2.0400    1.0990 hn        1 MOL      0.248913
    150 H68         7.2770   -3.4270   -1.1910 h1        1 MOL      0.132807
    151 H69         9.2510   -2.2290   -0.5270 hc        1 MOL      0.094638
    152 H70         8.6920   -3.0770    0.8170 hc        1 MOL      0.094638
    153 H71         7.5570   -0.9760    1.6380 hc        1 MOL     -0.057492
    154 H72         8.2840   -0.0610    0.2710 hc        1 MOL     -0.057492
    155 H73        10.6010   -0.8160    1.2330 hc        1 MOL      0.005434
    156 H74         9.5970   -1.5230    2.5660 hc        1 MOL      0.005434
    157 H75        10.1950    1.4230    2.0740 hx        1 MOL      0.102957
    158 H76        10.2710    0.3230    3.5440 hx        1 MOL      0.102957
    159 H77         7.8390    0.3020    3.3670 hn        1 MOL      0.204637
    160 H78         8.4850    1.7720    3.6860 hn        1 MOL      0.204637
    161 H79         7.8510    1.4390    2.1960 hn        1 MOL      0.204637
    162 N14         5.8300   -0.6660   -1.4090 n         1 MOL     -0.133924
    163 C49         5.2690    0.3540   -2.3200 c3        1 MOL      0.047575
    164 C50         6.1660    1.5690   -2.4740 c         1 MOL      0.216586
    165 O22         5.9350    2.6290   -1.8990 o         1 MOL     -0.432663
    166 C51         3.8930    0.7450   -1.7680 c3        1 MOL      0.241632
    167 C52         2.9230   -0.4300   -1.5760 c3        1 MOL     -0.133334
    168 C53         2.4050   -1.0910   -2.9440 c         1 MOL      0.591032
    169 O23         1.1980   -0.9170   -3.3280 o         1 MOL     -0.705080
    170 O24         3.1410   -1.7940   -3.6360 o         1 MOL     -0.705080
    171 H80         5.6520   -0.6800   -0.4190 hn        1 MOL      0.095005
    172 H81         5.1840   -0.0940   -3.3130 h1        1 MOL      0.165790
    173 H82         3.5650    1.4290   -2.5520 hc        1 MOL     -0.064220
    174 H83         4.0920    1.2120   -0.8030 hc        1 MOL     -0.064220
    175 H84         2.0670   -0.0930   -0.9820 hc        1 MOL      0.009319
    176 H85         3.3080   -1.2540   -0.9820 hc        1 MOL      0.009319
    177 N15         7.2100    1.3820   -3.2630 n         1 MOL     -0.163605
    178 C54         8.2940    2.3120   -3.6430 c3        1 MOL     -0.127923
    179 H86         7.9690    2.9230   -4.4850 h1        1 MOL      0.082008
    180 H87         8.5330    2.9570   -2.7970 h1        1 MOL      0.082008
    181 H88         9.1780    1.7430   -3.9290 h1        1 MOL      0.082008
    182 H89         7.2060    0.4440   -3.6380 hn        1 MOL      0.195094
    183 Ca1        -1.2660   -0.6470   -3.3980 Ca        1 MOL      1.757740
    184 O25        -3.6470   -0.4800   -4.5520 oh        1 MOL     -0.921709
    185 H90        -4.4650   -0.8870   -4.8280 ho        1 MOL      0.446917
    186 H91        -3.5920    0.3200   -5.0590 ho        1 MOL      0.446917
    187 O26        -0.3980    1.5780   -2.5850 oh        1 MOL     -0.921709
    188 H92        -0.5420    2.3930   -3.0600 ho        1 MOL      0.446917
    189 H93         0.3140    1.7780   -1.9760 ho        1 MOL      0.446917
    190 O27        -2.6820   -2.8090   -3.1610 oh        1 MOL     -0.921709
    191 H94        -2.8250   -3.1640   -2.2860 ho        1 MOL      0.446917
    192 H95        -3.0140   -3.4890   -3.7530 ho        1 MOL      0.446917
@<TRIPOS>BOND
     1    1    2 1   
     2    1    4 1   
     3    1    5 1   
     4    1    6 1   
     5    2    3 2   
     6    2    7 1   
     7    7    8 1   
     8    7   15 1   
     9    8    9 1   
    10    8   11 1   
    11    8   16 1   
    12    9   10 2   
    13    9   19 1   
    14   11   12 1   
    15   11   17 1   
    16   11   18 1   
    17   12   13 1   
    18   12   14 1   
    19   19   20 1   
    20   19   28 1   
    21   20   21 1   
    22   20   23 1   
    23   20   29 1   
    24   21   22 2   
    25   21   41 1   
    26   23   24 1   
    27   23   30 1   
    28   23   31 1   
    29   24   25 1   
    30   24   32 1   
    31   24   33 1   
    32   25   26 1   
    33   25   34 1   
    34   25   35 1   
    35   26   27 1   
    36   26   36 1   
    37   26   37 1   
    38   27   38 1   
    39   27   39 1   
    40   27   40 1   
    41   41   42 1   
    42   41   49 1   
    43   42   43 1   
    44   42   45 1   
    45   42   50 1   
    46   43   44 2   
    47   43   53 1   
    48   45   46 1   
    49   45   51 1   
    50   45   52 1   
    51   46   47 1   
    52   46   48 1   
    53   53   54 1   
    54   53   57 1   
    55   54   55 1   
    56   54   58 1   
    57   54   59 1   
    58   55   56 2   
    59   55   60 1   
    60   60   61 1   
    61   60   68 1   
    62   61   62 1   
    63   61   64 1   
    64   61   69 1   
    65   62   63 2   
    66   62   72 1   
    67   64   65 1   
    68   64   70 1   
    69   64   71 1   
    70   65   66 1   
    71   65   67 1   
    72   72   73 1   
    73   72   76 1   
    74   73   74 1   
    75   73   77 1   
    76   73   78 1   
    77   74   75 2   
    78   74   79 1   
    79   79   80 1   
    80   79   86 1   
    81   80   81 1   
    82   80   83 1   
    83   80   87 1   
    84   81   82 2   
    85   81   93 1   
    86   83   84 1   
    87   83   85 1   
    88   83   88 1   
    89   84   90 1   
    90   84   91 1   
    91   84   92 1   
    92   85   89 1   
    93   93   94 1   
    94   93  101 1   
    95   94   95 1   
    96   94   97 1   
    97   94  102 1   
    98   95   96 2   
    99   95  112 1   
   100   97   98 1   
   101   97   99 1   
   102   97  103 1   
   103   98  100 1   
   104   98  104 1   
   105   98  105 1   
   106   99  106 1   
   107   99  107 1   
   108   99  108 1   
   109  100  109 1   
   110  100  110 1   
   111  100  111 1   
   112  112  113 1   
   113  112  119 1   
   114  113  114 1   
   115  113  116 1   
   116  113  120 1   
   117  114  115 2   
   118  114  126 1   
   119  116  117 1   
   120  116  118 1   
   121  116  121 1   
   122  117  123 1   
   123  117  124 1   
   124  117  125 1   
   125  118  122 1   
   126  126  127 1   
   127  126  133 1   
   128  127  128 1   
   129  127  130 1   
   130  127  134 1   
   131  128  129 2   
   132  128  140 1   
   133  130  131 1   
   134  130  132 1   
   135  130  135 1   
   136  131  137 1   
   137  131  138 1   
   138  131  139 1   
   139  132  136 1   
   140  140  141 1   
   141  140  149 1   
   142  141  142 1   
   143  141  144 1   
   144  141  150 1   
   145  142  143 2   
   146  142  162 1   
   147  144  145 1   
   148  144  151 1   
   149  144  152 1   
   150  145  146 1   
   151  145  153 1   
   152  145  154 1   
   153  146  147 1   
   154  146  155 1   
   155  146  156 1   
   156  147  148 1   
   157  147  157 1   
   158  147  158 1   
   159  148  159 1   
   160  148  160 1   
   161  148  161 1   
   162  162  163 1   
   163  162  171 1   
   164  163  164 1   
   165  163  166 1   
   166  163  172 1   
   167  164  165 2   
   168  164  177 1   
   169  166  167 1   
   170  166  173 1   
   171  166  174 1   
   172  167  168 1   
   173  167  175 1   
   174  167  176 1   
   175  168  169 1   
   176  168  170 1   
   177  177  178 1   
   178  177  182 1   
   179  178  179 1   
   180  178  180 1   
   181  178  181 1   
   182  184  185 1   
   183  184  186 1   
   184  187  188 1   
   185  187  189 1   
   186  190  191 1   
   187  190  192 1   
@<TRIPOS>SUBSTRUCTURE
     1 MOL         1 TEMP              0 ****  ****    0 ROOT
