@<TRIPOS>MOLECULE
MOL
  185   180     1     0     0
SMALL
resp


@<TRIPOS>ATOM
      1 C1          4.4270    4.7590    2.1790 c3        1 MOL     -0.324024
      2 C2          5.2020    3.8370    1.2740 c         1 MOL      0.791414
      3 O1          4.7830    2.6710    1.1370 o         1 MOL     -0.587692
      4 H1          5.0710    5.0950    2.9910 hc        1 MOL      0.086440
      5 H2          4.0800    5.6210    1.6100 hc        1 MOL      0.086440
      6 H3          3.5690    4.2280    2.5920 hc        1 MOL      0.086440
      7 N1          6.3910    4.2020    0.7500 n         1 MOL     -0.791578
      8 C3          7.1300    3.4300   -0.2640 c3        1 MOL      0.274063
      9 C4          7.8230    2.1320    0.1590 c         1 MOL      0.294384
     10 O2          8.9100    1.8250   -0.3940 o         1 MOL     -0.511079
     11 C5          6.4510    3.1850   -1.6330 c3        1 MOL     -0.250654
     12 C6          5.8910    4.4050   -2.3450 c         1 MOL      0.764732
     13 O3          4.8120    4.2980   -2.9940 o         1 MOL     -0.701986
     14 O4          6.5910    5.4190   -2.3570 o         1 MOL     -0.701986
     15 H4          6.6910    5.1590    0.8730 hn        1 MOL      0.376857
     16 H5          7.9910    4.0490   -0.5400 h1        1 MOL      0.048505
     17 H6          5.6180    2.5070   -1.4560 hc        1 MOL      0.069687
     18 H7          7.1830    2.6880   -2.2610 hc        1 MOL      0.069687
     19 N2          7.2880    1.4490    1.1590 n         1 MOL     -0.134401
     20 C7          7.7580    0.0970    1.6180 c3        1 MOL     -0.194286
     21 C8          6.9690   -1.0200    0.8860 c         1 MOL      0.443844
     22 O5          7.1590   -2.2130    1.2120 o         1 MOL     -0.563268
     23 C9          7.8350    0.0640    3.1880 c3        1 MOL      0.130162
     24 C10         6.5250    0.3300    3.8740 c3        1 MOL     -0.009778
     25 C11         6.7710    0.3190    5.4230 c3        1 MOL     -0.305004
     26 C12         7.8370    1.3860    5.7770 c3        1 MOL      0.000972
     27 N3          7.6030    2.7340    5.1330 n4        1 MOL     -0.433907
     28 H8          6.4940    1.8330    1.6530 hn        1 MOL      0.043578
     29 H9          8.7910   -0.1110    1.3240 h1        1 MOL      0.129822
     30 H10         8.6480    0.7870    3.3080 hc        1 MOL      0.016256
     31 H11         8.2440   -0.8810    3.5410 hc        1 MOL      0.016256
     32 H12         5.9520   -0.5440    3.5560 hc        1 MOL      0.059525
     33 H13         6.0210    1.2720    3.6540 hc        1 MOL      0.059525
     34 H14         7.1540   -0.6560    5.7540 hc        1 MOL      0.142876
     35 H15         5.8620    0.6710    5.8900 hc        1 MOL      0.142876
     36 H16         8.8400    1.0170    5.5700 hx        1 MOL      0.104325
     37 H17         7.8480    1.4920    6.8520 hx        1 MOL      0.104325
     38 H18         7.9790    2.6840    4.2000 hn        1 MOL      0.323985
     39 H19         6.6300    3.0140    5.0930 hn        1 MOL      0.323985
     40 H20         8.0540    3.4650    5.6640 hn        1 MOL      0.323985
     41 N4          6.0340   -0.6810    0.0980 n         1 MOL     -0.113916
     42 C13         5.1590   -1.5790   -0.5150 c3        1 MOL     -0.102368
     43 C14         4.5650   -1.1080   -1.7880 c         1 MOL      0.268183
     44 O6          4.1330    0.0390   -1.8390 o         1 MOL     -0.350186
     45 C15         4.0460   -1.8660    0.5120 c3        1 MOL     -0.294587
     46 C16         3.1940   -3.1280    0.1830 c         1 MOL      0.817512
     47 O7          2.7700   -3.1920   -1.0030 o         1 MOL     -0.716452
     48 O8          3.1210   -4.1000    0.9790 o         1 MOL     -0.716452
     49 H21         5.8610    0.3000   -0.0850 hn        1 MOL      0.263468
     50 H22         5.7220   -2.5020   -0.6560 h1        1 MOL      0.092811
     51 H23         3.4040   -1.0050    0.6460 hc        1 MOL      0.098900
     52 H24         4.4980   -1.9830    1.4930 hc        1 MOL      0.098900
     53 N5          4.5950   -1.8670   -2.8710 n         1 MOL     -0.125987
     54 C17         3.9580   -1.5090   -4.1370 c3        1 MOL     -0.387988
     55 C18         2.4480   -1.2770   -4.1370 c         1 MOL      0.543459
     56 O9          1.9450   -0.7350   -5.1100 o         1 MOL     -0.529479
     57 H25         5.1110   -2.7270   -2.7550 hn        1 MOL      0.182740
     58 H26         4.0810   -2.2790   -4.9010 h1        1 MOL      0.170407
     59 H27         4.4150   -0.5870   -4.5040 h1        1 MOL      0.170407
     60 N6          1.7330   -1.4410   -3.0200 n         1 MOL     -0.412621
     61 C19         0.3670   -0.8870   -2.8110 c3        1 MOL     -0.030265
     62 C20         0.3290    0.6120   -2.3900 c         1 MOL      0.589258
     63 O10        -0.7380    1.2150   -2.4230 o         1 MOL     -0.561645
     64 C21        -0.3430   -1.7220   -1.7930 c3        1 MOL     -0.217804
     65 C22        -0.5100   -3.1500   -2.2830 c         1 MOL      0.758617
     66 N7         -1.4370   -3.3490   -3.1760 n         1 MOL     -0.770612
     67 O11         0.0620   -4.1510   -1.8150 o         1 MOL     -0.614856
     68 H28         2.2090   -1.8710   -2.2390 hn        1 MOL      0.270695
     69 H29        -0.1220   -0.9530   -3.7870 h1        1 MOL      0.088629
     70 H30        -1.3090   -1.3000   -1.5180 hc        1 MOL      0.094729
     71 H31         0.3300   -1.7320   -0.9330 hc        1 MOL      0.094729
     72 H32        -2.1640   -2.6610   -3.3430 hn        1 MOL      0.356294
     73 H33        -1.7490   -4.3040   -3.2590 hn        1 MOL      0.356294
     74 N8          1.4440    1.2530   -1.8960 n         1 MOL     -0.256716
     75 C23         1.6110    2.7170   -1.8620 c3        1 MOL     -0.325874
     76 C24         0.4520    3.3810   -1.0950 c         1 MOL      0.701934
     77 O12         0.2850    3.1480    0.0880 o         1 MOL     -0.563686
     78 H34         2.2400    0.6560   -1.7410 hn        1 MOL      0.227036
     79 H35         1.5620    3.0810   -2.8970 h1        1 MOL      0.157402
     80 H36         2.5530    2.9510   -1.3730 h1        1 MOL      0.157402
     81 N9         -0.3750    4.1730   -1.8110 n         1 MOL     -0.700428
     82 C25        -1.6200    4.9410   -1.4410 c3        1 MOL      0.359704
     83 C26        -2.7010    4.1730   -0.6480 c         1 MOL      0.039987
     84 O13        -3.8030    4.5870   -0.5200 o         1 MOL     -0.419805
     85 C27        -1.0660    6.0680   -0.5910 c3        1 MOL     -0.279789
     86 C28        -2.1710    7.0530   -0.1570 ca        1 MOL      0.043946
     87 C29        -2.8430    7.8910   -1.0640 ca        1 MOL     -0.246645
     88 C30        -2.6110    6.9220    1.2020 ca        1 MOL     -0.246645
     89 C31        -4.0300    8.5240   -0.6250 ca        1 MOL     -0.145816
     90 C32        -3.7730    7.6190    1.6610 ca        1 MOL     -0.145816
     91 C33        -4.4700    8.4170    0.7190 ca        1 MOL      0.261212
     92 O14        -5.5110    9.1940    1.1380 oh        1 MOL     -0.493832
     93 H37        -0.2110    4.1200   -2.8110 hn        1 MOL      0.347597
     94 H38        -1.9000    5.4390   -2.3780 h1        1 MOL      0.071096
     95 H39        -0.4520    6.6590   -1.2790 hc        1 MOL      0.126391
     96 H40        -0.4670    5.6750    0.2260 hc        1 MOL      0.126391
     97 H41        -2.5190    7.9650   -2.0940 ha        1 MOL      0.174811
     98 H42        -2.0690    6.3520    1.9430 ha        1 MOL      0.174811
     99 H43        -4.4380    9.2970   -1.2590 ha        1 MOL      0.122092
    100 H44        -3.9730    7.7500    2.7130 ha        1 MOL      0.122092
    101 H45        -5.5950    9.1800    2.0930 ho        1 MOL      0.365457
    102 N10        -2.3780    3.0640   -0.0250 n         1 MOL      0.184128
    103 C34        -3.2500    2.0770    0.6300 c3        1 MOL     -0.116019
    104 C35        -4.1720    1.3490   -0.3410 c         1 MOL      0.302122
    105 O15        -3.9040    0.1580   -0.6070 o         1 MOL     -0.454065
    106 C36        -3.9060    2.6320    1.9470 c3        1 MOL      0.215332
    107 C37        -2.8740    3.1800    2.9610 c3        1 MOL     -0.018352
    108 C38        -4.8080    1.5800    2.6180 c3        1 MOL     -0.530210
    109 C39        -3.4600    4.1220    4.0970 c3        1 MOL     -0.015426
    110 H46        -1.3820    2.9050    0.0320 hn        1 MOL      0.105909
    111 H47        -2.5640    1.3490    1.0530 h1        1 MOL      0.090635
    112 H48        -4.5260    3.5060    1.7460 hc        1 MOL     -0.001450
    113 H49        -2.1600    3.8270    2.4510 hc        1 MOL      0.015083
    114 H50        -2.3710    2.3730    3.4860 hc        1 MOL      0.015083
    115 H51        -4.2470    0.7170    2.9850 hc        1 MOL      0.133501
    116 H52        -5.4230    2.0750    3.3640 hc        1 MOL      0.133501
    117 H53        -5.5180    1.1590    1.9000 hc        1 MOL      0.133501
    118 H54        -3.9420    4.9700    3.6210 hc        1 MOL     -0.009285
    119 H55        -4.2050    3.6130    4.7090 hc        1 MOL     -0.009285
    120 H56        -2.6410    4.5500    4.6770 hc        1 MOL     -0.009285
    121 N11        -5.2040    2.0300   -0.9680 n         1 MOL     -0.227483
    122 C40        -5.8750    1.4460   -2.1180 c3        1 MOL      0.012018
    123 C41        -6.9950    0.4020   -1.5990 c         1 MOL      0.203090
    124 O16        -7.3910   -0.5230   -2.3410 o         1 MOL     -0.464822
    125 C42        -6.3330    2.4680   -3.1070 c3        1 MOL      0.355330
    126 O17        -5.2880    3.2600   -3.6380 oh        1 MOL     -0.647147
    127 H57        -5.2640    3.0150   -0.7450 hn        1 MOL      0.203694
    128 H58        -5.1710    0.8340   -2.6900 h1        1 MOL      0.073541
    129 H59        -7.0780    3.0580   -2.5700 h1        1 MOL     -0.003056
    130 H60        -6.8150    1.9620   -3.9410 h1        1 MOL     -0.003056
    131 H61        -4.4530    2.8010   -3.7070 ho        1 MOL      0.404502
    132 N12        -7.5490    0.6990   -0.4080 n         1 MOL     -0.167772
    133 C43        -8.4750   -0.2900    0.3040 c3        1 MOL     -0.009079
    134 C44        -7.9310   -1.7460    0.5610 c         1 MOL      0.519649
    135 O18        -8.5530   -2.5060    1.3130 o         1 MOL     -0.524635
    136 C45        -9.8530   -0.4490   -0.4000 c3        1 MOL     -0.421000
    137 H62        -7.4460    1.6210   -0.0040 hn        1 MOL      0.236095
    138 H63        -8.6700    0.1820    1.2660 h1        1 MOL      0.086215
    139 H64       -10.1620    0.5180   -0.7900 hc        1 MOL      0.136557
    140 H65        -9.8650   -1.2450   -1.1460 hc        1 MOL      0.136557
    141 H66       -10.6560   -0.8630    0.2110 hc        1 MOL      0.136557
    142 N13        -6.7540   -2.1010   -0.0360 n         1 MOL     -0.509335
    143 C46        -6.1150   -3.3890    0.0950 c3        1 MOL      0.499326
    144 C47        -5.0900   -3.5300    1.2360 c         1 MOL      0.239019
    145 O19        -4.6050   -2.5740    1.8120 o         1 MOL     -0.392204
    146 C48        -5.5700   -3.8510   -1.2920 c3        1 MOL     -0.162092
    147 H67        -6.2920   -1.4560   -0.6630 hn        1 MOL      0.278334
    148 H68        -6.8960   -4.1090    0.3270 h1        1 MOL     -0.045136
    149 H69        -6.3780   -4.0840   -1.9760 hc        1 MOL      0.038337
    150 H70        -5.0280   -2.9530   -1.6020 hc        1 MOL      0.038337
    151 H71        -4.8940   -4.6970   -1.1860 hc        1 MOL      0.038337
    152 N14        -4.8460   -4.7640    1.7070 n         1 MOL     -0.334215
    153 C49        -3.9090   -5.1790    2.7890 c3        1 MOL     -0.229211
    154 C50        -4.0050   -4.4110    4.1990 c         1 MOL      0.445538
    155 O20        -2.9490   -4.1000    4.8090 o         1 MOL     -0.478500
    156 C51        -2.4690   -5.1470    2.1740 c3        1 MOL      0.230507
    157 C52        -2.2660   -5.9700    0.9040 c3        1 MOL     -0.097276
    158 C53        -0.7930   -5.9710    0.4580 c         1 MOL      0.680079
    159 O21        -0.5050   -6.7580   -0.4740 o         1 MOL     -0.795365
    160 O22         0.0590   -5.1190    0.8730 o         1 MOL     -0.795365
    161 H72        -5.3800   -5.4980    1.2680 hn        1 MOL      0.242092
    162 H73        -4.1260   -6.2220    3.0000 h1        1 MOL      0.093708
    163 H74        -1.8250   -5.5370    2.9620 hc        1 MOL      0.012843
    164 H75        -2.1550   -4.1110    2.0090 hc        1 MOL      0.012843
    165 H76        -2.8650   -5.5760    0.0870 hc        1 MOL      0.006258
    166 H77        -2.6530   -6.9730    1.0900 hc        1 MOL      0.006258
    167 N15        -5.2410   -4.2080    4.7180 n         1 MOL     -0.321812
    168 C54        -5.5200   -3.3030    5.7520 c3        1 MOL     -0.020635
    169 H78        -4.6740   -3.2630    6.4370 h1        1 MOL      0.054106
    170 H79        -5.6920   -2.3120    5.3310 h1        1 MOL      0.054106
    171 H80        -6.4100   -3.6290    6.2910 h1        1 MOL      0.054106
    172 H81        -6.0270   -4.5800    4.1970 hn        1 MOL      0.263970
    173 Ca1         1.9300   -5.6620   -0.8980 Ca        1 MOL      1.737705
    174 O23         4.4010   -6.1320   -1.1020 oh        1 MOL     -0.810968
    175 H82         5.0630   -6.6850   -1.5110 ho        1 MOL      0.408452
    176 H83         4.8770   -5.6500   -0.4320 ho        1 MOL      0.408452
    177 O24         2.1280   -7.6900    0.7770 oh        1 MOL     -0.810968
    178 H84         1.2440   -7.9000    1.0780 ho        1 MOL      0.408452
    179 H85         2.6570   -8.4480    1.0330 ho        1 MOL      0.408452
    180 O25         2.7630   -4.7930   -3.4600 oh        1 MOL     -0.810968
    181 H86         2.7400   -4.8270   -4.4170 ho        1 MOL      0.408452
    182 H87         3.5370   -4.2700   -3.2620 ho        1 MOL      0.408452
    183 O26         1.9790   -7.9310   -2.4300 oh        1 MOL     -0.810968
    184 H88         1.9390   -8.8450   -2.1310 ho        1 MOL      0.408452
    185 H89         1.4360   -7.9130   -3.2190 ho        1 MOL      0.408452
@<TRIPOS>BOND
     1    1    2 1   
     2    1    4 1   
     3    1    5 1   
     4    1    6 1   
     5    2    3 2   
     6    2    7 1   
     7    7    8 1   
     8    7   15 1   
     9    8    9 1   
    10    8   11 1   
    11    8   16 1   
    12    9   10 2   
    13    9   19 1   
    14   11   12 1   
    15   11   17 1   
    16   11   18 1   
    17   12   13 1   
    18   12   14 1   
    19   19   20 1   
    20   19   28 1   
    21   20   21 1   
    22   20   23 1   
    23   20   29 1   
    24   21   22 2   
    25   21   41 1   
    26   23   24 1   
    27   23   30 1   
    28   23   31 1   
    29   24   25 1   
    30   24   32 1   
    31   24   33 1   
    32   25   26 1   
    33   25   34 1   
    34   25   35 1   
    35   26   27 1   
    36   26   36 1   
    37   26   37 1   
    38   27   38 1   
    39   27   39 1   
    40   27   40 1   
    41   41   42 1   
    42   41   49 1   
    43   42   43 1   
    44   42   45 1   
    45   42   50 1   
    46   43   44 2   
    47   43   53 1   
    48   45   46 1   
    49   45   51 1   
    50   45   52 1   
    51   46   47 1   
    52   46   48 1   
    53   53   54 1   
    54   53   57 1   
    55   54   55 1   
    56   54   58 1   
    57   54   59 1   
    58   55   56 2   
    59   55   60 1   
    60   60   61 1   
    61   60   68 1   
    62   61   62 1   
    63   61   64 1   
    64   61   69 1   
    65   62   63 2   
    66   62   74 1   
    67   64   65 1   
    68   64   70 1   
    69   64   71 1   
    70   65   66 1   
    71   65   67 2   
    72   66   72 1   
    73   66   73 1   
    74   74   75 1   
    75   74   78 1   
    76   75   76 1   
    77   75   79 1   
    78   75   80 1   
    79   76   77 2   
    80   76   81 1   
    81   81   82 1   
    82   81   93 1   
    83   82   83 1   
    84   82   85 1   
    85   82   94 1   
    86   83   84 2   
    87   83  102 1   
    88   85   86 1   
    89   85   95 1   
    90   85   96 1   
    91   86   87 ar  
    92   86   88 ar  
    93   87   89 ar  
    94   87   97 1   
    95   88   90 ar  
    96   88   98 1   
    97   89   91 ar  
    98   89   99 1   
    99   90   91 ar  
   100   90  100 1   
   101   91   92 1   
   102   92  101 1   
   103  102  103 1   
   104  102  110 1   
   105  103  104 1   
   106  103  106 1   
   107  103  111 1   
   108  104  105 2   
   109  104  121 1   
   110  106  107 1   
   111  106  108 1   
   112  106  112 1   
   113  107  109 1   
   114  107  113 1   
   115  107  114 1   
   116  108  115 1   
   117  108  116 1   
   118  108  117 1   
   119  109  118 1   
   120  109  119 1   
   121  109  120 1   
   122  121  122 1   
   123  121  127 1   
   124  122  123 1   
   125  122  125 1   
   126  122  128 1   
   127  123  124 2   
   128  123  132 1   
   129  125  126 1   
   130  125  129 1   
   131  125  130 1   
   132  126  131 1   
   133  132  133 1   
   134  132  137 1   
   135  133  134 1   
   136  133  136 1   
   137  133  138 1   
   138  134  135 2   
   139  134  142 1   
   140  136  139 1   
   141  136  140 1   
   142  136  141 1   
   143  142  143 1   
   144  142  147 1   
   145  143  144 1   
   146  143  146 1   
   147  143  148 1   
   148  144  145 2   
   149  144  152 1   
   150  146  149 1   
   151  146  150 1   
   152  146  151 1   
   153  152  153 1   
   154  152  161 1   
   155  153  154 1   
   156  153  156 1   
   157  153  162 1   
   158  154  155 2   
   159  154  167 1   
   160  156  157 1   
   161  156  163 1   
   162  156  164 1   
   163  157  158 1   
   164  157  165 1   
   165  157  166 1   
   166  158  159 1   
   167  158  160 1   
   168  167  168 1   
   169  167  172 1   
   170  168  169 1   
   171  168  170 1   
   172  168  171 1   
   173  174  175 1   
   174  174  176 1   
   175  177  178 1   
   176  177  179 1   
   177  180  181 1   
   178  180  182 1   
   179  183  184 1   
   180  183  185 1   
@<TRIPOS>SUBSTRUCTURE
     1 MOL         1 TEMP              0 ****  ****    0 ROOT
