@<TRIPOS>MOLECULE
MOL
  189   185     1     0     0
SMALL
resp


@<TRIPOS>ATOM
      1 C1         12.0340    5.6450   -1.7110 c3        1 MOL     -0.462016
      2 C2         11.7740    4.4910   -0.7140 c         1 MOL      0.590505
      3 O1         12.7360    3.9160   -0.1590 o         1 MOL     -0.552161
      4 H1         13.0070    5.5070   -2.1810 hc        1 MOL      0.130743
      5 H2         11.2580    5.6470   -2.4760 hc        1 MOL      0.130743
      6 H3         12.0210    6.5960   -1.1780 hc        1 MOL      0.130743
      7 N1         10.4890    4.1950   -0.4530 n         1 MOL     -0.252190
      8 C3          9.9840    3.4990    0.7660 c3        1 MOL     -0.306763
      9 C4          8.8160    2.6400    0.3630 c         1 MOL      0.394111
     10 O2          7.9900    3.0280   -0.4910 o         1 MOL     -0.620335
     11 C5          9.6790    4.4360    1.8960 c3        1 MOL      0.514233
     12 C6          8.9210    5.6430    1.5280 c         1 MOL      0.394114
     13 O3          8.0870    5.5870    0.5720 o         1 MOL     -0.637837
     14 O4          9.1480    6.7250    2.1400 o         1 MOL     -0.637837
     15 H4          9.7380    4.6790   -0.9210 hn        1 MOL      0.148607
     16 H5         10.7160    2.7760    1.1020 h1        1 MOL      0.095952
     17 H6         10.5810    4.6370    2.4770 hc        1 MOL     -0.060189
     18 H7          9.1010    3.8260    2.5830 hc        1 MOL     -0.060189
     19 N2          8.6950    1.4700    0.9440 n         1 MOL     -0.111434
     20 C7          7.7250    0.3510    0.5440 c3        1 MOL     -0.148951
     21 C8          6.4280    0.4650    1.3440 c         1 MOL      0.449035
     22 O5          6.4910    0.4860    2.5680 o         1 MOL     -0.478723
     23 C9          8.4590   -0.9920    0.7660 c3        1 MOL      0.061440
     24 C10         7.8710   -2.2680    0.1670 c3        1 MOL     -0.144113
     25 C11         7.3670   -2.0970   -1.2270 c3        1 MOL     -0.145728
     26 C12         7.4460   -3.4060   -2.0940 c3        1 MOL      0.018185
     27 N3          7.0180   -3.0900   -3.5220 n4        1 MOL     -0.249931
     28 H8          9.4080    1.2160    1.6060 hn        1 MOL      0.219647
     29 H9          7.5520    0.5740   -0.5100 h1        1 MOL      0.127389
     30 H10         8.7690   -1.2340    1.7870 hc        1 MOL      0.020743
     31 H11         9.3910   -0.8420    0.2150 hc        1 MOL      0.020743
     32 H12         6.9770   -2.4740    0.7480 hc        1 MOL      0.101410
     33 H13         8.5810   -3.0920    0.1780 hc        1 MOL      0.101410
     34 H14         7.7560   -1.2320   -1.7590 hc        1 MOL      0.052516
     35 H15         6.3260   -1.8060   -1.0960 hc        1 MOL      0.052516
     36 H16         6.7570   -4.1400   -1.6850 hx        1 MOL      0.087711
     37 H17         8.4890   -3.7290   -2.1420 hx        1 MOL      0.087711
     38 H18         6.0320   -2.8830   -3.4020 hn        1 MOL      0.244379
     39 H19         7.4570   -2.2400   -3.8480 hn        1 MOL      0.244379
     40 H20         7.1980   -3.8970   -4.0870 hn        1 MOL      0.244379
     41 N4          5.2720    0.5000    0.6670 n         1 MOL     -0.250690
     42 C13         3.9710    0.4870    1.3230 c3        1 MOL      0.033357
     43 C14         2.8890    0.0830    0.3730 c         1 MOL      0.332791
     44 O6          2.9640    0.3900   -0.8390 o         1 MOL     -0.520367
     45 C15         3.6710    1.8280    1.9420 c3        1 MOL      0.325917
     46 C16         4.2220    3.0510    1.2830 c         1 MOL      0.514838
     47 O7          3.5190    3.6590    0.4430 o         1 MOL     -0.712325
     48 O8          5.4620    3.3740    1.4710 o         1 MOL     -0.712325
     49 H21         5.1740    0.5720   -0.3390 hn        1 MOL      0.151370
     50 H22         3.9960   -0.2280    2.1440 h1        1 MOL      0.063737
     51 H23         4.1230    1.8230    2.9310 hc        1 MOL     -0.045114
     52 H24         2.6040    1.9150    2.1690 hc        1 MOL     -0.045114
     53 N5          1.7620   -0.4880    0.8570 n         1 MOL     -0.262260
     54 C17         1.3940   -0.9780    2.2130 c3        1 MOL      0.010039
     55 C18         1.9110   -2.4030    2.3780 c         1 MOL      0.691950
     56 O9          3.0560   -2.7190    2.1490 o         1 MOL     -0.543900
     57 H25         1.0770   -0.5940    0.1230 hn        1 MOL      0.197912
     58 H26         0.3130   -0.9270    2.3950 h1        1 MOL      0.053731
     59 H27         1.9040   -0.4140    2.9850 h1        1 MOL      0.053731
     60 N6          1.1020   -3.3180    2.9800 n         1 MOL     -0.766081
     61 C19         1.4420   -4.6990    3.1780 c3        1 MOL      0.276871
     62 C20         0.3870   -5.5750    2.4560 c         1 MOL      0.342940
     63 O10        -0.7250   -5.1270    2.2100 o         1 MOL     -0.394234
     64 C21         1.4990   -5.0800    4.6790 c3        1 MOL     -0.173065
     65 C22         2.0960   -4.0190    5.6770 c         1 MOL      0.811579
     66 O11         1.3820   -3.5510    6.5380 o         1 MOL     -0.662336
     67 O12         3.3070   -3.9240    5.7380 o         1 MOL     -0.662336
     68 H28         0.1410   -3.1030    3.1870 hn        1 MOL      0.347268
     69 H29         2.4560   -4.9190    2.8280 h1        1 MOL      0.033954
     70 H30         2.1090   -5.9810    4.7700 hc        1 MOL      0.003338
     71 H31         0.4770   -5.2280    5.0400 hc        1 MOL      0.003338
     72 N7          0.8070   -6.7660    2.0710 n         1 MOL     -0.356765
     73 C23        -0.0120   -7.5760    1.1850 c3        1 MOL     -0.137342
     74 C24        -0.0950   -7.1620   -0.2820 c         1 MOL      0.422129
     75 O13        -1.0240   -7.5510   -0.9860 o         1 MOL     -0.528270
     76 H32         1.6430   -7.2180    2.4090 hn        1 MOL      0.298479
     77 H33        -1.0260   -7.6240    1.5940 h1        1 MOL      0.110228
     78 H34         0.4530   -8.5570    1.2610 h1        1 MOL      0.110228
     79 N8          0.7240   -6.2320   -0.6960 n         1 MOL     -0.057301
     80 C25         0.6250   -5.3820   -1.9240 c3        1 MOL     -0.174193
     81 C26         0.7550   -3.8640   -1.6900 c         1 MOL      0.583010
     82 O14         1.3300   -3.3530   -0.7590 o         1 MOL     -0.485493
     83 C27         1.5740   -5.9740   -2.9560 c3        1 MOL      0.291140
     84 C28         3.0440   -5.8540   -2.7540 c3        1 MOL     -0.223271
     85 O15         1.1700   -7.3710   -3.1780 oh        1 MOL     -0.612448
     86 H35         1.4690   -6.0340   -0.0480 hn        1 MOL      0.137108
     87 H36        -0.3850   -5.5340   -2.3010 h1        1 MOL      0.093704
     88 H37         1.3780   -5.5150   -3.9210 h1        1 MOL     -0.002511
     89 H38         0.3320   -7.3920   -3.6510 ho        1 MOL      0.404139
     90 H39         3.5730   -4.9240   -2.9680 hc        1 MOL      0.064092
     91 H40         3.3230   -6.2660   -1.7850 hc        1 MOL      0.064092
     92 H41         3.4020   -6.4750   -3.5650 hc        1 MOL      0.064092
     93 N9          0.2700   -3.1640   -2.6730 n         1 MOL     -0.520014
     94 C29         0.1130   -1.7290   -2.6760 c3        1 MOL     -0.056333
     95 C30        -0.9130   -1.2970   -1.6050 c         1 MOL      0.570933
     96 O16        -0.6920   -0.5090   -0.6330 o         1 MOL     -0.486667
     97 C31        -0.1260   -1.2060   -4.1490 c3        1 MOL      0.016329
     98 C32         1.0690   -1.6380   -5.0540 c3        1 MOL      0.049682
     99 C33        -0.3870    0.3190   -4.1460 c3        1 MOL     -0.339845
    100 C34         0.9220   -1.1010   -6.5260 c3        1 MOL     -0.107029
    101 H42        -0.2620   -3.6270   -3.3960 hn        1 MOL      0.312732
    102 H43         1.0470   -1.2880   -2.3150 h1        1 MOL      0.125231
    103 H44        -0.9860   -1.7090   -4.5880 hc        1 MOL      0.066762
    104 H45         0.9670   -2.7220   -5.1690 hc        1 MOL     -0.012516
    105 H46         2.0280   -1.3950   -4.5980 hc        1 MOL     -0.012516
    106 H47         0.4960    0.9370   -3.9640 hc        1 MOL      0.102108
    107 H48        -0.7300    0.6660   -5.1270 hc        1 MOL      0.102108
    108 H49        -1.1130    0.7130   -3.4310 hc        1 MOL      0.102108
    109 H50         0.9350   -0.0130   -6.5780 hc        1 MOL      0.031143
    110 H51         1.7310   -1.5190   -7.1350 hc        1 MOL      0.031143
    111 H52         0.0080   -1.4180   -7.0220 hc        1 MOL      0.031143
    112 N10        -2.1640   -1.8970   -1.7370 n         1 MOL     -0.455240
    113 C35        -3.2440   -1.8540   -0.7570 c3        1 MOL     -0.065702
    114 C36        -4.6560   -2.2930   -1.2610 c         1 MOL      0.711233
    115 O17        -4.6640   -3.0890   -2.1680 o         1 MOL     -0.531487
    116 C37        -2.7910   -2.6660    0.5060 c3        1 MOL      0.175630
    117 C38        -3.7470   -2.7680    1.7050 c3        1 MOL     -0.357335
    118 O18        -2.5090   -4.0220    0.1280 oh        1 MOL     -0.516649
    119 H53        -2.3550   -2.4700   -2.5440 hn        1 MOL      0.267566
    120 H54        -3.2960   -0.7960   -0.4870 h1        1 MOL      0.084076
    121 H55        -1.9120   -2.1400    0.8780 h1        1 MOL      0.095539
    122 H56        -1.8660   -4.4090    0.7310 ho        1 MOL      0.332848
    123 H57        -4.1670   -1.7930    1.9240 hc        1 MOL      0.094642
    124 H58        -4.5670   -3.4340    1.4390 hc        1 MOL      0.094642
    125 H59        -3.2950   -3.2340    2.5850 hc        1 MOL      0.094642
    126 N11        -5.7570   -1.7870   -0.7480 n         1 MOL     -0.655821
    127 C39        -7.1170   -2.1650   -1.0820 c3        1 MOL      0.108820
    128 C40        -8.2100   -1.0330   -1.2420 c         1 MOL      0.604500
    129 O19        -8.9530   -1.0380   -2.2360 o         1 MOL     -0.547043
    130 C41        -7.5720   -3.1330    0.0230 c3        1 MOL      0.229282
    131 C42        -9.0140   -3.6330   -0.2250 c3        1 MOL     -0.390976
    132 O20        -7.5920   -2.4460    1.2850 oh        1 MOL     -0.635540
    133 H60        -5.6640   -1.1400    0.0260 hn        1 MOL      0.332589
    134 H61        -7.1240   -2.7380   -2.0120 h1        1 MOL      0.074618
    135 H62        -6.9300   -4.0070    0.1240 h1        1 MOL      0.078878
    136 H63        -7.4610   -3.1080    1.9730 ho        1 MOL      0.419278
    137 H64        -9.0630   -4.3830    0.5630 hc        1 MOL      0.103478
    138 H65        -9.8110   -2.9250   -0.0520 hc        1 MOL      0.103478
    139 H66        -9.1800   -4.1720   -1.1590 hc        1 MOL      0.103478
    140 N12        -8.3300   -0.0460   -0.2810 n         1 MOL     -0.523381
    141 C43        -9.1650    1.0960   -0.3180 c3        1 MOL      0.041540
    142 C44        -8.4350    2.2480    0.4430 c         1 MOL      0.655885
    143 O21        -7.7220    1.9200    1.3870 o         1 MOL     -0.508845
    144 C45       -10.4580    0.7190    0.4790 c3        1 MOL     -0.212276
    145 C46       -11.4780    1.8420    0.5590 c3        1 MOL     -0.014387
    146 C47       -12.6660    1.1920    1.3250 c3        1 MOL     -0.036840
    147 C48       -13.7810    2.1810    1.4640 c3        1 MOL      0.122193
    148 N13       -15.0200    1.4400    1.9090 n4        1 MOL     -0.275697
    149 H67        -7.7020   -0.1030    0.5000 hn        1 MOL      0.300515
    150 H68        -9.4060    1.4920   -1.3050 h1        1 MOL      0.095843
    151 H69       -10.2040    0.5180    1.5180 hc        1 MOL      0.107659
    152 H70       -10.9470   -0.1090   -0.0180 hc        1 MOL      0.107659
    153 H71       -11.8240    2.1390   -0.4300 hc        1 MOL      0.031142
    154 H72       -11.1050    2.7230    1.0800 hc        1 MOL      0.031142
    155 H73       -12.4040    0.9710    2.3550 hc        1 MOL      0.031441
    156 H74       -12.9780    0.2410    0.8930 hc        1 MOL      0.031441
    157 H75       -13.9990    2.8490    0.6310 hx        1 MOL      0.057496
    158 H76       -13.5640    2.8540    2.2860 hx        1 MOL      0.057496
    159 H77       -15.7330    2.0890    2.1960 hn        1 MOL      0.246900
    160 H78       -15.4180    0.8660    1.1720 hn        1 MOL      0.246900
    161 H79       -14.7870    0.8800    2.7070 hn        1 MOL      0.246900
    162 N14        -8.5120    3.5190    0.0030 n         1 MOL     -0.611555
    163 C49        -7.9380    4.7450    0.5940 c3        1 MOL      0.319226
    164 C50        -6.4200    4.5760    0.6430 c         1 MOL      0.322009
    165 O22        -5.9100    4.4280    1.7460 o         1 MOL     -0.506855
    166 C51        -8.4750    5.9590   -0.1520 c3        1 MOL     -0.171395
    167 C52        -7.8400    7.3070    0.3010 c3        1 MOL     -0.230742
    168 C53        -8.7140    8.5070   -0.3440 c         1 MOL      0.703118
    169 O23        -8.6660    8.7340   -1.5950 o         1 MOL     -0.643388
    170 O24        -9.4320    9.2530    0.3440 o         1 MOL     -0.643388
    171 H80        -9.0270    3.7120   -0.8480 hn        1 MOL      0.263584
    172 H81        -8.2690    4.8760    1.6260 h1        1 MOL      0.048608
    173 H82        -9.5290    6.0470    0.1280 hc        1 MOL      0.057833
    174 H83        -8.3330    5.8770   -1.2240 hc        1 MOL      0.057833
    175 H84        -6.8070    7.4360   -0.0140 hc        1 MOL      0.065068
    176 H85        -7.9700    7.4160    1.3820 hc        1 MOL      0.065068
    177 N15        -5.5770    4.6950   -0.4400 n         1 MOL     -0.308196
    178 C54        -5.8600    4.9000   -1.8820 c3        1 MOL     -0.108485
    179 H86        -6.8110    5.4210   -1.9940 h1        1 MOL      0.076145
    180 H87        -5.0640    5.4950   -2.3280 h1        1 MOL      0.076145
    181 H88        -5.9160    3.9330   -2.3830 h1        1 MOL      0.076145
    182 H89        -4.6350    4.4140   -0.1800 hn        1 MOL      0.277594
    183 Ca1         6.0280    4.7490   -0.6060 Ca        1 MOL      1.686675
    184 O25         5.4340    2.4060   -2.0100 oh        1 MOL     -0.855130
    185 H90         6.1360    2.2600   -2.6430 ho        1 MOL      0.420063
    186 H91         4.6700    1.9590   -2.3890 ho        1 MOL      0.420063
    187 O26         3.5840    5.3500   -1.5530 oh        1 MOL     -0.855130
    188 H92         3.2580    4.7640   -2.2440 ho        1 MOL      0.420063
    189 H93         3.2360    4.9760   -0.7420 ho        1 MOL      0.420063
@<TRIPOS>BOND
     1    1    2 1   
     2    1    4 1   
     3    1    5 1   
     4    1    6 1   
     5    2    3 2   
     6    2    7 1   
     7    7    8 1   
     8    7   15 1   
     9    8    9 1   
    10    8   11 1   
    11    8   16 1   
    12    9   10 2   
    13    9   19 1   
    14   11   12 1   
    15   11   17 1   
    16   11   18 1   
    17   12   13 1   
    18   12   14 1   
    19   19   20 1   
    20   19   28 1   
    21   20   21 1   
    22   20   23 1   
    23   20   29 1   
    24   21   22 2   
    25   21   41 1   
    26   23   24 1   
    27   23   30 1   
    28   23   31 1   
    29   24   25 1   
    30   24   32 1   
    31   24   33 1   
    32   25   26 1   
    33   25   34 1   
    34   25   35 1   
    35   26   27 1   
    36   26   36 1   
    37   26   37 1   
    38   27   38 1   
    39   27   39 1   
    40   27   40 1   
    41   41   42 1   
    42   41   49 1   
    43   42   43 1   
    44   42   45 1   
    45   42   50 1   
    46   43   44 2   
    47   43   53 1   
    48   45   46 1   
    49   45   51 1   
    50   45   52 1   
    51   46   47 1   
    52   46   48 1   
    53   53   54 1   
    54   53   57 1   
    55   54   55 1   
    56   54   58 1   
    57   54   59 1   
    58   55   56 2   
    59   55   60 1   
    60   60   61 1   
    61   60   68 1   
    62   61   62 1   
    63   61   64 1   
    64   61   69 1   
    65   62   63 2   
    66   62   72 1   
    67   64   65 1   
    68   64   70 1   
    69   64   71 1   
    70   65   66 1   
    71   65   67 1   
    72   72   73 1   
    73   72   76 1   
    74   73   74 1   
    75   73   77 1   
    76   73   78 1   
    77   74   75 2   
    78   74   79 1   
    79   79   80 1   
    80   79   86 1   
    81   80   81 1   
    82   80   83 1   
    83   80   87 1   
    84   81   82 2   
    85   81   93 1   
    86   83   84 1   
    87   83   85 1   
    88   83   88 1   
    89   84   90 1   
    90   84   91 1   
    91   84   92 1   
    92   85   89 1   
    93   93   94 1   
    94   93  101 1   
    95   94   95 1   
    96   94   97 1   
    97   94  102 1   
    98   95   96 2   
    99   95  112 1   
   100   97   98 1   
   101   97   99 1   
   102   97  103 1   
   103   98  100 1   
   104   98  104 1   
   105   98  105 1   
   106   99  106 1   
   107   99  107 1   
   108   99  108 1   
   109  100  109 1   
   110  100  110 1   
   111  100  111 1   
   112  112  113 1   
   113  112  119 1   
   114  113  114 1   
   115  113  116 1   
   116  113  120 1   
   117  114  115 2   
   118  114  126 1   
   119  116  117 1   
   120  116  118 1   
   121  116  121 1   
   122  117  123 1   
   123  117  124 1   
   124  117  125 1   
   125  118  122 1   
   126  126  127 1   
   127  126  133 1   
   128  127  128 1   
   129  127  130 1   
   130  127  134 1   
   131  128  129 2   
   132  128  140 1   
   133  130  131 1   
   134  130  132 1   
   135  130  135 1   
   136  131  137 1   
   137  131  138 1   
   138  131  139 1   
   139  132  136 1   
   140  140  141 1   
   141  140  149 1   
   142  141  142 1   
   143  141  144 1   
   144  141  150 1   
   145  142  143 2   
   146  142  162 1   
   147  144  145 1   
   148  144  151 1   
   149  144  152 1   
   150  145  146 1   
   151  145  153 1   
   152  145  154 1   
   153  146  147 1   
   154  146  155 1   
   155  146  156 1   
   156  147  148 1   
   157  147  157 1   
   158  147  158 1   
   159  148  159 1   
   160  148  160 1   
   161  148  161 1   
   162  162  163 1   
   163  162  171 1   
   164  163  164 1   
   165  163  166 1   
   166  163  172 1   
   167  164  165 2   
   168  164  177 1   
   169  166  167 1   
   170  166  173 1   
   171  166  174 1   
   172  167  168 1   
   173  167  175 1   
   174  167  176 1   
   175  168  169 1   
   176  168  170 1   
   177  177  178 1   
   178  177  182 1   
   179  178  179 1   
   180  178  180 1   
   181  178  181 1   
   182  184  185 1   
   183  184  186 1   
   184  187  188 1   
   185  187  189 1   
@<TRIPOS>SUBSTRUCTURE
     1 MOL         1 TEMP              0 ****  ****    0 ROOT
