@<TRIPOS>MOLECULE
MOL
  181   177     1     0     0
SMALL
resp


@<TRIPOS>ATOM
      1 C1         -5.4070    7.8900    2.0980 c3        1 MOL     -0.292998
      2 C2         -4.8120    6.8290    1.2100 c         1 MOL      0.650573
      3 O1         -3.8470    7.1240    0.5350 o         1 MOL     -0.573661
      4 H1         -6.3840    7.5610    2.4510 hc        1 MOL      0.074818
      5 H2         -4.7510    8.0600    2.9510 hc        1 MOL      0.074818
      6 H3         -5.5180    8.8160    1.5340 hc        1 MOL      0.074818
      7 N1         -5.3220    5.6030    1.1270 n         1 MOL     -0.535582
      8 C3         -6.5780    5.0110    1.6970 c3        1 MOL      0.230122
      9 C4         -7.6580    4.7180    0.6590 c         1 MOL      0.317015
     10 O2         -8.8070    4.4790    1.0340 o         1 MOL     -0.512037
     11 C5         -6.2290    3.6920    2.3960 c3        1 MOL     -0.256835
     12 C6         -5.2380    2.7890    1.5670 c         1 MOL      0.685874
     13 O3         -4.0450    2.6410    1.9400 o         1 MOL     -0.674265
     14 O4         -5.7680    2.1670    0.6170 o         1 MOL     -0.674265
     15 H4         -4.7220    5.0190    0.5730 hn        1 MOL      0.320788
     16 H5         -7.0200    5.6510    2.4610 h1        1 MOL      0.072363
     17 H6         -7.1760    3.1860    2.6220 hc        1 MOL      0.060398
     18 H7         -5.6400    3.9320    3.2760 hc        1 MOL      0.060398
     19 N2         -7.1770    4.7790   -0.5990 n         1 MOL     -0.286482
     20 C7         -8.1240    4.5660   -1.7080 c3        1 MOL      0.144301
     21 C8         -8.4840    3.0610   -2.0710 c         1 MOL      0.375217
     22 O5         -9.0920    2.7910   -3.1200 o         1 MOL     -0.541611
     23 C9         -7.5150    5.2310   -2.8980 c3        1 MOL     -0.172793
     24 H8         -6.1880    4.9080   -0.7600 hn        1 MOL      0.215417
     25 H9         -9.0310    5.1520   -1.5700 h1        1 MOL      0.078898
     26 H10        -7.2070    6.2160   -2.5560 hc        1 MOL      0.051293
     27 H11        -6.6610    4.7490   -3.3680 hc        1 MOL      0.051293
     28 H12        -8.2450    5.4310   -3.6900 hc        1 MOL      0.051293
     29 N3         -8.2200    2.1330   -1.1910 n         1 MOL     -0.137418
     30 C10        -8.7470    0.7240   -1.1030 c3        1 MOL     -0.020695
     31 C11        -9.1470    0.1690    0.2670 c         1 MOL      0.425212
     32 O6        -10.1830   -0.3810    0.4920 o         1 MOL     -0.508688
     33 C12        -7.8650   -0.2390   -1.9480 c3        1 MOL     -0.065069
     34 C13        -6.4980   -0.1950   -1.5110 c         1 MOL      0.777529
     35 O7         -5.6620    0.5100   -2.1230 o         1 MOL     -0.753057
     36 O8         -6.0730   -0.8350   -0.5270 o         1 MOL     -0.753057
     37 H13        -7.5410    2.4350   -0.5030 hn        1 MOL      0.022285
     38 H14        -9.7550    0.7270   -1.5240 h1        1 MOL      0.086934
     39 H15        -7.8610    0.0730   -2.9920 hc        1 MOL      0.032309
     40 H16        -8.2800   -1.2470   -1.9890 hc        1 MOL      0.032309
     41 N4         -8.2420    0.5090    1.2060 n         1 MOL     -0.038952
     42 C14        -8.3640    0.0150    2.6010 c3        1 MOL     -0.164608
     43 C15        -7.8500   -1.3610    2.8810 c         1 MOL      0.623626
     44 O9         -8.2140   -1.8930    3.9600 o         1 MOL     -0.577056
     45 H17        -7.6020    1.2800    1.0320 hn        1 MOL      0.146486
     46 H18        -9.3940   -0.0060    2.9420 h1        1 MOL      0.077547
     47 H19        -7.8230    0.5980    3.3480 h1        1 MOL      0.077547
     48 N5         -6.9740   -1.8910    2.0330 n         1 MOL     -0.522702
     49 C16        -6.8670   -3.3490    1.9130 c3        1 MOL      0.241629
     50 C17        -5.4180   -3.8020    1.7160 c         1 MOL      0.428913
     51 O10        -4.9320   -4.7460    2.3830 o         1 MOL     -0.540016
     52 C18        -7.7560   -3.7270    0.7080 c3        1 MOL     -0.443439
     53 C19        -7.8720   -5.2350    0.4590 c         1 MOL      0.806453
     54 N6         -8.2820   -6.0310    1.3520 n         1 MOL     -0.856062
     55 O11        -7.5660   -5.7450   -0.5950 o         1 MOL     -0.606656
     56 H20        -6.5890   -1.3370    1.2870 hn        1 MOL      0.209918
     57 H21        -7.2330   -3.8180    2.8220 h1        1 MOL      0.021069
     58 H22        -7.3430   -3.2280   -0.1730 hc        1 MOL      0.121911
     59 H23        -8.7130   -3.2180    0.8570 hc        1 MOL      0.121911
     60 H24        -8.3200   -5.7190    2.3040 hn        1 MOL      0.380100
     61 H25        -8.3790   -7.0210    1.1720 hn        1 MOL      0.380100
     62 N7         -4.7040   -3.1610    0.7970 n         1 MOL     -0.339754
     63 C20        -3.4700   -3.7030    0.1760 c3        1 MOL      0.021513
     64 C21        -2.8520   -2.7760   -0.8730 c         1 MOL      0.570635
     65 O12        -3.4110   -1.7690   -1.1510 o         1 MOL     -0.586039
     66 H26        -5.1300   -2.3750    0.3400 hn        1 MOL      0.263699
     67 H27        -3.6700   -4.6560   -0.3050 h1        1 MOL      0.078496
     68 H28        -2.7480   -3.9540    0.9510 h1        1 MOL      0.078496
     69 N8         -1.7210   -3.1840   -1.4900 n         1 MOL     -0.284251
     70 C22        -0.9520   -4.4470   -1.3130 c3        1 MOL     -0.354662
     71 C23         0.5490   -4.2560   -1.1510 c         1 MOL      0.678374
     72 O13         1.3670   -5.1910   -1.0500 o         1 MOL     -0.580773
     73 C24        -1.2520   -5.3810   -2.5270 c3        1 MOL      0.470697
     74 C25        -2.6290   -6.0330   -2.4550 c3        1 MOL     -0.392117
     75 O14        -1.1940   -4.6800   -3.7380 oh        1 MOL     -0.662028
     76 H29        -1.4860   -2.5540   -2.2440 hn        1 MOL      0.250720
     77 H30        -1.3050   -4.9810   -0.4320 h1        1 MOL      0.149351
     78 H31        -0.4300   -6.0930   -2.5510 h1        1 MOL     -0.023494
     79 H32        -0.3730   -4.8430   -4.2160 ho        1 MOL      0.424853
     80 H33        -3.3320   -5.1930   -2.4490 hc        1 MOL      0.105618
     81 H34        -2.6930   -6.7330   -3.2920 hc        1 MOL      0.105618
     82 H35        -2.7950   -6.5610   -1.5220 hc        1 MOL      0.105618
     83 N9          0.9800   -3.0220   -1.2860 n         1 MOL     -0.419913
     84 C26         2.3640   -2.5380   -1.2500 c3        1 MOL      0.081947
     85 C27         2.4410   -1.2300   -0.4380 c         1 MOL      0.554704
     86 O15         1.5390   -0.4070   -0.4420 o         1 MOL     -0.600045
     87 C28         2.9130   -2.3500   -2.6860 c3        1 MOL      0.243163
     88 C29         2.9640   -3.5860   -3.6540 c3        1 MOL     -0.084008
     89 C30         4.3440   -1.6390   -2.6530 c3        1 MOL      0.017800
     90 C31         3.3230   -3.2260   -5.1370 c3        1 MOL     -0.078793
     91 H36         0.2450   -2.3400   -1.3750 hn        1 MOL      0.176505
     92 H37         3.0040   -3.3280   -0.8520 h1        1 MOL      0.061300
     93 H38         2.2850   -1.5700   -3.1180 hc        1 MOL     -0.050898
     94 H39         1.9590   -4.0020   -3.6810 hc        1 MOL     -0.002708
     95 H40         3.7370   -4.2890   -3.3340 hc        1 MOL     -0.002708
     96 H41         4.6580   -1.4220   -3.6710 hc        1 MOL     -0.012618
     97 H42         4.1660   -0.6440   -2.2320 hc        1 MOL     -0.012618
     98 H43         5.0410   -2.2420   -2.0830 hc        1 MOL     -0.012618
     99 H44         4.3970   -3.0550   -5.2330 hc        1 MOL      0.019606
    100 H45         3.1410   -4.0610   -5.8060 hc        1 MOL      0.019606
    101 H46         2.7940   -2.3730   -5.5560 hc        1 MOL      0.019606
    102 N10         3.3910   -0.9870    0.4340 n         1 MOL     -0.477571
    103 C32         4.5910   -1.7650    0.8280 c3        1 MOL      0.088921
    104 C33         5.8820   -0.9400    0.6510 c         1 MOL      0.539514
    105 O16         5.8160    0.3090    0.8060 o         1 MOL     -0.544231
    106 C34         4.5830   -2.4170    2.2010 c3        1 MOL     -0.395206
    107 C35         3.2240   -3.0500    2.4710 c         1 MOL      0.799435
    108 O17         3.0210   -4.2580    2.6380 o         1 MOL     -0.733762
    109 O18         2.2750   -2.2990    2.7840 o         1 MOL     -0.733762
    110 H47         3.3250   -0.0710    0.8470 hn        1 MOL      0.346952
    111 H48         4.7090   -2.6180    0.1710 h1        1 MOL      0.015162
    112 H49         4.8520   -1.6660    2.9460 hc        1 MOL      0.093008
    113 H50         5.3380   -3.1940    2.3280 hc        1 MOL      0.093008
    114 N11         6.9680   -1.6150    0.3820 n         1 MOL     -0.325236
    115 C36         8.3110   -1.0980    0.2350 c3        1 MOL      0.082377
    116 C37         8.6970   -0.6630   -1.2100 c         1 MOL      0.338648
    117 O19         8.2410   -1.1290   -2.2470 o         1 MOL     -0.508249
    118 C38         9.2900   -2.1610    0.7200 c3        1 MOL     -0.088910
    119 C39         9.1840   -2.4400    2.1400 ca        1 MOL     -0.095391
    120 C40         9.6810   -1.5080    3.0590 ca        1 MOL     -0.043489
    121 C41         8.5090   -3.5580    2.4780 ca        1 MOL     -0.043489
    122 C42         9.6890   -1.8610    4.4350 ca        1 MOL     -0.149425
    123 C43         8.5660   -3.9010    3.8770 ca        1 MOL     -0.149425
    124 C44         9.0940   -3.0550    4.7920 ca        1 MOL     -0.077541
    125 H51         6.8320   -2.5860    0.1760 hn        1 MOL      0.282776
    126 H52         8.3990   -0.3000    0.9730 h1        1 MOL      0.094529
    127 H53        10.3140   -1.8930    0.4420 hc        1 MOL      0.056023
    128 H54         9.0250   -3.0400    0.1290 hc        1 MOL      0.056023
    129 H55        10.1790   -0.6050    2.7160 ha        1 MOL      0.092417
    130 H56         8.0090   -4.1480    1.7270 ha        1 MOL      0.092417
    131 H57        10.2420   -1.2540    5.1380 ha        1 MOL      0.111308
    132 H58         8.1700   -4.8560    4.1950 ha        1 MOL      0.111308
    133 H59         9.0490   -3.3310    5.8380 ha        1 MOL      0.095722
    134 N12         9.7020    0.2110   -1.2950 n         1 MOL     -0.050454
    135 C45        10.3030    0.9090   -0.2130 c3        1 MOL     -0.138588
    136 C46         9.6360    2.2670    0.2680 c         1 MOL      0.596776
    137 O20         9.8180    2.5770    1.4100 o         1 MOL     -0.571293
    138 C47        11.8290    0.9960   -0.6600 c3        1 MOL      0.019770
    139 C48        11.6680    1.3160   -2.1480 c3        1 MOL     -0.065537
    140 C49        10.4970    0.4090   -2.4900 c3        1 MOL     -0.197143
    141 H60        10.3620    0.2710    0.6650 h1        1 MOL      0.030410
    142 H61        12.4630    1.7470   -0.1850 hc        1 MOL      0.035153
    143 H62        12.3860    0.0670   -0.5380 hc        1 MOL      0.035153
    144 H63        11.2760    2.3300   -2.2040 hc        1 MOL      0.031843
    145 H64        12.4900    1.0090   -2.7990 hc        1 MOL      0.031843
    146 H65         9.9160    0.8210   -3.3060 h1        1 MOL      0.112099
    147 H66        10.8560   -0.5850   -2.7580 h1        1 MOL      0.112099
    148 N13         8.8160    2.9410   -0.4580 n         1 MOL     -0.540153
    149 C50         8.0030    4.0630    0.0290 c3        1 MOL      0.279653
    150 C51         8.8760    5.3170    0.2300 c         1 MOL      0.425907
    151 O21         9.0660    6.1190   -0.6690 o         1 MOL     -0.569746
    152 C52         6.9270    4.3140   -1.0370 c3        1 MOL     -0.231937
    153 C53         5.7400    3.3850   -1.0720 c3        1 MOL     -0.116526
    154 C54         4.6230    3.6440   -2.1190 c         1 MOL      0.723586
    155 O22         3.4510    3.5470   -1.7430 o         1 MOL     -0.736470
    156 O23         4.8630    4.0530   -3.2790 o         1 MOL     -0.736470
    157 H67         8.7640    2.7170   -1.4430 hn        1 MOL      0.390538
    158 H68         7.4920    3.8380    0.9650 h1        1 MOL      0.083014
    159 H69         7.5010    4.2010   -1.9540 hc        1 MOL      0.049449
    160 H70         6.5990    5.3200   -0.7960 hc        1 MOL      0.049449
    161 H71         5.3110    3.5200   -0.0770 hc        1 MOL      0.019538
    162 H72         6.0650    2.3430   -1.0810 hc        1 MOL      0.019538
    163 N14         9.3050    5.6680    1.4180 n         1 MOL     -0.348314
    164 C55         8.9980    5.0610    2.7490 c3        1 MOL     -0.077815
    165 H73         8.2600    4.2690    2.6240 h1        1 MOL      0.059920
    166 H74         9.9100    4.6430    3.1770 h1        1 MOL      0.059920
    167 H75         8.6010    5.8260    3.4150 h1        1 MOL      0.059920
    168 H76         9.8380    6.5210    1.5290 hn        1 MOL      0.270958
    169 Ca1        -3.9320    0.6640   -0.3240 Ca        1 MOL      1.757164
    170 O24        -2.2760    2.7780   -0.3460 oh        1 MOL     -0.878005
    171 H77        -1.8630    3.2310    0.3910 ho        1 MOL      0.440193
    172 H78        -1.6060    2.7650   -1.0320 ho        1 MOL      0.440193
    173 O25        -2.6240    0.5060   -2.6950 oh        1 MOL     -0.878005
    174 H79        -2.4540   -0.3810   -3.0260 ho        1 MOL      0.440193
    175 H80        -2.5090    1.0710   -3.4570 ho        1 MOL      0.440193
    176 O26        -3.7710   -0.3200    2.2260 oh        1 MOL     -0.878005
    177 H81        -4.4120   -0.2130    2.9260 ho        1 MOL      0.440193
    178 H82        -2.9330   -0.4500    2.6770 ho        1 MOL      0.440193
    179 O27        -1.3220   -0.3900    0.0190 oh        1 MOL     -0.878005
    180 H83        -0.5960    0.1000   -0.3600 ho        1 MOL      0.440193
    181 H84        -0.9020   -1.0700    0.5510 ho        1 MOL      0.440193
@<TRIPOS>BOND
     1    1    2 1   
     2    1    4 1   
     3    1    5 1   
     4    1    6 1   
     5    2    3 2   
     6    2    7 1   
     7    7    8 1   
     8    7   15 1   
     9    8    9 1   
    10    8   11 1   
    11    8   16 1   
    12    9   10 2   
    13    9   19 1   
    14   11   12 1   
    15   11   17 1   
    16   11   18 1   
    17   12   13 1   
    18   12   14 1   
    19   19   20 1   
    20   19   24 1   
    21   20   21 1   
    22   20   23 1   
    23   20   25 1   
    24   21   22 2   
    25   21   29 1   
    26   23   26 1   
    27   23   27 1   
    28   23   28 1   
    29   29   30 1   
    30   29   37 1   
    31   30   31 1   
    32   30   33 1   
    33   30   38 1   
    34   31   32 2   
    35   31   41 1   
    36   33   34 1   
    37   33   39 1   
    38   33   40 1   
    39   34   35 1   
    40   34   36 1   
    41   41   42 1   
    42   41   45 1   
    43   42   43 1   
    44   42   46 1   
    45   42   47 1   
    46   43   44 2   
    47   43   48 1   
    48   48   49 1   
    49   48   56 1   
    50   49   50 1   
    51   49   52 1   
    52   49   57 1   
    53   50   51 2   
    54   50   62 1   
    55   52   53 1   
    56   52   58 1   
    57   52   59 1   
    58   53   54 1   
    59   53   55 2   
    60   54   60 1   
    61   54   61 1   
    62   62   63 1   
    63   62   66 1   
    64   63   64 1   
    65   63   67 1   
    66   63   68 1   
    67   64   65 2   
    68   64   69 1   
    69   69   70 1   
    70   69   76 1   
    71   70   71 1   
    72   70   73 1   
    73   70   77 1   
    74   71   72 2   
    75   71   83 1   
    76   73   74 1   
    77   73   75 1   
    78   73   78 1   
    79   74   80 1   
    80   74   81 1   
    81   74   82 1   
    82   75   79 1   
    83   83   84 1   
    84   83   91 1   
    85   84   85 1   
    86   84   87 1   
    87   84   92 1   
    88   85   86 2   
    89   85  102 1   
    90   87   88 1   
    91   87   89 1   
    92   87   93 1   
    93   88   90 1   
    94   88   94 1   
    95   88   95 1   
    96   89   96 1   
    97   89   97 1   
    98   89   98 1   
    99   90   99 1   
   100   90  100 1   
   101   90  101 1   
   102  102  103 1   
   103  102  110 1   
   104  103  104 1   
   105  103  106 1   
   106  103  111 1   
   107  104  105 2   
   108  104  114 1   
   109  106  107 1   
   110  106  112 1   
   111  106  113 1   
   112  107  108 1   
   113  107  109 1   
   114  114  115 1   
   115  114  125 1   
   116  115  116 1   
   117  115  118 1   
   118  115  126 1   
   119  116  117 2   
   120  116  134 1   
   121  118  119 1   
   122  118  127 1   
   123  118  128 1   
   124  119  120 ar  
   125  119  121 ar  
   126  120  122 ar  
   127  120  129 1   
   128  121  123 ar  
   129  121  130 1   
   130  122  124 ar  
   131  122  131 1   
   132  123  124 ar  
   133  123  132 1   
   134  124  133 1   
   135  134  135 1   
   136  134  140 1   
   137  135  136 1   
   138  135  138 1   
   139  135  141 1   
   140  136  137 2   
   141  136  148 1   
   142  138  139 1   
   143  138  142 1   
   144  138  143 1   
   145  139  140 1   
   146  139  144 1   
   147  139  145 1   
   148  140  146 1   
   149  140  147 1   
   150  148  149 1   
   151  148  157 1   
   152  149  150 1   
   153  149  152 1   
   154  149  158 1   
   155  150  151 2   
   156  150  163 1   
   157  152  153 1   
   158  152  159 1   
   159  152  160 1   
   160  153  154 1   
   161  153  161 1   
   162  153  162 1   
   163  154  155 1   
   164  154  156 1   
   165  163  164 1   
   166  163  168 1   
   167  164  165 1   
   168  164  166 1   
   169  164  167 1   
   170  170  171 1   
   171  170  172 1   
   172  173  174 1   
   173  173  175 1   
   174  176  177 1   
   175  176  178 1   
   176  179  180 1   
   177  179  181 1   
@<TRIPOS>SUBSTRUCTURE
     1 MOL         1 TEMP              0 ****  ****    0 ROOT
