@<TRIPOS>MOLECULE
MOL
  192   187     1     0     0
SMALL
resp


@<TRIPOS>ATOM
      1 C1          9.0860    0.9990    2.1930 c3        1 MOL     -0.478143
      2 C2          8.2600    0.5430    1.0230 c         1 MOL      0.808052
      3 O1          7.0000    0.5430    1.1150 o         1 MOL     -0.671181
      4 H1          9.4440    2.0130    2.0110 hc        1 MOL      0.115908
      5 H2          8.4770    0.9860    3.0960 hc        1 MOL      0.115908
      6 H3          9.9380    0.3310    2.3190 hc        1 MOL      0.115908
      7 N1          8.9330    0.0370    0.0070 n         1 MOL     -0.687407
      8 C3          8.3780   -0.5350   -1.2390 c3        1 MOL      0.285405
      9 C4          7.7820   -1.9260   -0.9300 c         1 MOL      0.358845
     10 O2          8.1240   -2.8910   -1.5960 o         1 MOL     -0.448909
     11 C5          9.3610   -0.3910   -2.4330 c3        1 MOL     -0.369559
     12 C6          8.6340   -0.8290   -3.7570 c         1 MOL      0.654761
     13 O3          7.3790   -0.6960   -3.8830 o         1 MOL     -0.592442
     14 O4          9.4030   -1.3700   -4.6370 o         1 MOL     -0.592442
     15 H4          9.9360    0.1430    0.0740 hn        1 MOL      0.329142
     16 H5          7.5450    0.1240   -1.4690 h1        1 MOL      0.066384
     17 H6         10.2550   -0.9890   -2.2780 hc        1 MOL      0.091430
     18 H7          9.7190    0.6320   -2.5430 hc        1 MOL      0.091430
     19 N2          6.9340   -2.0730    0.0940 n         1 MOL     -0.178593
     20 C7          6.3500   -3.3280    0.5060 c3        1 MOL      0.169731
     21 C8          4.9270   -3.6170   -0.0370 c         1 MOL      0.648285
     22 O5          4.7420   -4.6410   -0.6420 o         1 MOL     -0.558989
     23 C9          6.4310   -3.5290    2.0850 c3        1 MOL     -0.174030
     24 C10         7.8930   -3.8050    2.5290 c3        1 MOL     -0.020345
     25 C11         8.2270   -4.0190    4.0380 c3        1 MOL      0.200159
     26 C12         9.7050   -4.2070    4.2600 c3        1 MOL      0.007714
     27 N3         10.0970   -4.3950    5.6390 n4        1 MOL     -0.111897
     28 H8          6.7190   -1.2020    0.5610 hn        1 MOL      0.179076
     29 H9          6.9710   -4.0700    0.0060 h1        1 MOL      0.015592
     30 H10         5.6920   -4.2230    2.4880 hc        1 MOL      0.045456
     31 H11         6.4040   -2.5800    2.5990 hc        1 MOL      0.045456
     32 H12         8.4320   -2.9360    2.1730 hc        1 MOL     -0.004055
     33 H13         8.2890   -4.6760    2.0130 hc        1 MOL     -0.004055
     34 H14         7.7350   -4.8290    4.5650 hc        1 MOL     -0.035447
     35 H15         7.9030   -3.1580    4.6320 hc        1 MOL     -0.035447
     36 H16        10.2090   -3.3330    3.8440 hx        1 MOL      0.052666
     37 H17        10.0400   -5.0900    3.7170 hx        1 MOL      0.052666
     38 H18         9.7910   -5.2510    6.0900 hn        1 MOL      0.193906
     39 H19        11.0650   -4.6330    5.7850 hn        1 MOL      0.193906
     40 H20         9.9190   -3.6080    6.2510 hn        1 MOL      0.193906
     41 N4          3.8900   -2.7430    0.0180 n         1 MOL     -0.644157
     42 C13         3.8710   -1.5130    0.8540 c3        1 MOL      0.164130
     43 C14         3.8640   -0.2350   -0.0870 c         1 MOL      0.197915
     44 O6          3.7710   -0.3280   -1.3040 o         1 MOL     -0.375363
     45 C15         2.5900   -1.4780    1.7180 c3        1 MOL     -0.267533
     46 C16         1.3070   -1.6850    0.9230 c         1 MOL      0.906567
     47 O7          0.9520   -0.9030    0.0080 o         1 MOL     -0.761385
     48 O8          0.6020   -2.7320    1.0740 o         1 MOL     -0.761385
     49 H21         3.0410   -2.9160   -0.5140 hn        1 MOL      0.415792
     50 H22         4.7550   -1.4730    1.5010 h1        1 MOL      0.048438
     51 H23         2.6890   -0.5210    2.2340 hc        1 MOL      0.042408
     52 H24         2.7400   -2.2440    2.4710 hc        1 MOL      0.042408
     53 N5          4.0120    0.9740    0.5070 n         1 MOL     -0.092896
     54 C17         4.0340    2.2940   -0.1480 c3        1 MOL     -0.301757
     55 C18         2.7190    2.8170   -0.7880 c         1 MOL      0.792503
     56 O9          1.6880    2.1930   -0.7460 o         1 MOL     -0.697958
     57 H25         4.1380    0.9950    1.5130 hn        1 MOL      0.219145
     58 H26         4.6010    2.1780   -1.0810 h1        1 MOL      0.132460
     59 H27         4.4860    3.0530    0.4930 h1        1 MOL      0.132460
     60 N6          2.7560    4.1020   -1.2010 n         1 MOL     -0.607359
     61 C19         1.6650    4.9110   -1.8400 c3        1 MOL      0.508591
     62 C20         1.9660    6.3960   -1.7950 c         1 MOL      0.302392
     63 O10         3.1810    6.7630   -1.7080 o         1 MOL     -0.517324
     64 C21         1.5330    4.4270   -3.3170 c3        1 MOL     -0.406378
     65 C22         1.1360    2.9550   -3.4850 c         1 MOL      0.760376
     66 O11         1.9030    2.1690   -3.9910 o         1 MOL     -0.648587
     67 O12         0.0220    2.6510   -3.0330 o         1 MOL     -0.648587
     68 H28         3.6230    4.5750   -1.0290 hn        1 MOL      0.270090
     69 H29         0.7370    4.7280   -1.2910 h1        1 MOL     -0.014184
     70 H30         2.3990    4.6400   -3.9410 hc        1 MOL      0.081161
     71 H31         0.7130    5.0170   -3.7130 hc        1 MOL      0.081161
     72 N7          0.9900    7.2940   -1.9460 n         1 MOL     -0.287945
     73 C23        -0.4350    7.0660   -2.1310 c3        1 MOL     -0.118752
     74 C24        -1.2040    6.5310   -0.8820 c         1 MOL      0.562849
     75 O13        -0.7660    6.8690    0.2190 o         1 MOL     -0.511470
     76 H32         1.3160    8.2510   -1.9770 hn        1 MOL      0.295510
     77 H33        -0.7410    6.4380   -2.9700 h1        1 MOL      0.070167
     78 H34        -0.7880    8.0790   -2.3250 h1        1 MOL      0.070167
     79 N8         -2.3000    5.7720   -1.0470 n         1 MOL     -0.548911
     80 C25        -2.9820    5.0480    0.0260 c3        1 MOL      0.065502
     81 C26        -2.1190    3.8800    0.5790 c         1 MOL      0.857203
     82 O14        -1.4780    3.2160   -0.3050 o         1 MOL     -0.732477
     83 C27        -4.2880    4.4550   -0.4260 c3        1 MOL      0.293450
     84 C28        -5.0770    3.6990    0.6780 c3        1 MOL     -0.366665
     85 O15        -4.2010    3.7310   -1.6600 oh        1 MOL     -0.634338
     86 H35        -2.5980    5.6210   -1.9990 hn        1 MOL      0.342394
     87 H36        -3.3310    5.7080    0.8250 h1        1 MOL      0.034334
     88 H37        -4.8640    5.3370   -0.7110 h1        1 MOL      0.007607
     89 H38        -5.1210    3.6370   -1.9330 ho        1 MOL      0.416354
     90 H39        -4.7060    2.6750    0.7820 hc        1 MOL      0.087823
     91 H40        -5.0640    4.1530    1.6610 hc        1 MOL      0.087823
     92 H41        -6.1300    3.6690    0.3720 hc        1 MOL      0.087823
     93 N9         -2.0050    3.7280    1.9040 n         1 MOL     -0.576138
     94 C29        -1.1810    2.7610    2.6210 c3        1 MOL      0.031811
     95 C30        -1.4110    1.2890    2.2320 c         1 MOL      0.467473
     96 O16        -1.1210    0.8430    1.1450 o         1 MOL     -0.507638
     97 C31         0.3480    3.0620    2.5270 c3        1 MOL     -0.049713
     98 C32         0.7150    4.5260    2.8910 c3        1 MOL      0.198415
     99 C33         1.0520    2.0740    3.4550 c3        1 MOL     -0.399085
    100 C34         2.1220    5.0910    2.3540 c3        1 MOL     -0.187191
    101 H42        -2.4460    4.4490    2.4670 hn        1 MOL      0.304568
    102 H43        -1.4620    2.9050    3.6610 h1        1 MOL      0.059257
    103 H44         0.6550    2.8790    1.5020 hc        1 MOL      0.106481
    104 H45         0.7390    4.6000    3.9780 hc        1 MOL     -0.041718
    105 H46        -0.0640    5.2040    2.5510 hc        1 MOL     -0.041718
    106 H47         0.6820    1.9880    4.4740 hc        1 MOL      0.108058
    107 H48         1.1900    1.1290    2.9260 hc        1 MOL      0.108058
    108 H49         2.0660    2.4100    3.6730 hc        1 MOL      0.108058
    109 H50         2.2580    6.0220    2.9000 hc        1 MOL      0.041142
    110 H51         2.8990    4.3540    2.5430 hc        1 MOL      0.041142
    111 H52         2.1110    5.3090    1.2810 hc        1 MOL      0.041142
    112 N10        -2.1170    0.5820    3.0940 n         1 MOL     -0.325221
    113 C35        -2.5380   -0.7790    2.9270 c3        1 MOL     -0.034979
    114 C36        -4.0350   -1.0430    2.8670 c         1 MOL      0.626426
    115 O17        -4.5410   -2.0980    3.1440 o         1 MOL     -0.577319
    116 C37        -1.8560   -1.7190    3.9190 c3        1 MOL      0.448593
    117 C38        -1.8550   -1.0930    5.3680 c3        1 MOL     -0.442316
    118 O18        -0.4540   -1.8670    3.5620 oh        1 MOL     -0.591149
    119 H53        -2.3570    1.0170    3.9730 hn        1 MOL      0.235895
    120 H54        -2.1550   -1.0590    1.9460 h1        1 MOL      0.068299
    121 H55        -2.3660   -2.6910    3.9320 h1        1 MOL     -0.018429
    122 H56        -0.4140   -2.1930    2.6580 ho        1 MOL      0.313827
    123 H57        -1.5000   -1.8200    6.1020 hc        1 MOL      0.111050
    124 H58        -1.0910   -0.3190    5.3220 hc        1 MOL      0.111050
    125 H59        -2.8270   -0.7480    5.6960 hc        1 MOL      0.111050
    126 N11        -4.9000   -0.0270    2.7350 n         1 MOL     -0.417059
    127 C39        -6.3760   -0.0140    2.7710 c3        1 MOL      0.107392
    128 C40        -6.8740   -0.5890    1.4200 c         1 MOL      0.545473
    129 O19        -7.2070    0.1820    0.5050 o         1 MOL     -0.482916
    130 C41        -6.9570    1.4120    2.9890 c3        1 MOL      0.449138
    131 C42        -8.3550    1.3550    3.5860 c3        1 MOL     -0.424902
    132 O20        -6.0930    2.2450    3.8350 oh        1 MOL     -0.640589
    133 H60        -4.4650    0.8460    3.0160 hn        1 MOL      0.210857
    134 H61        -6.7410   -0.6630    3.5640 h1        1 MOL      0.029208
    135 H62        -6.9500    1.8640    2.0040 h1        1 MOL     -0.059643
    136 H63        -6.6250    3.0400    3.9630 ho        1 MOL      0.398747
    137 H64        -9.0440    0.9970    2.8240 hc        1 MOL      0.104282
    138 H65        -8.2860    0.6740    4.4380 hc        1 MOL      0.104282
    139 H66        -8.6020    2.3370    3.9740 hc        1 MOL      0.104282
    140 N12        -6.7700   -1.9320    1.2850 n         1 MOL     -0.782154
    141 C43        -6.5140   -2.5700   -0.0780 c3        1 MOL      0.322913
    142 C44        -5.2120   -2.2340   -0.7990 c         1 MOL      0.486254
    143 O21        -4.7640   -1.0720   -0.6690 o         1 MOL     -0.510641
    144 C45        -7.7210   -2.4900   -1.0050 c3        1 MOL     -0.453281
    145 C46        -8.9390   -3.1980   -0.3140 c3        1 MOL      0.248643
    146 C47       -10.2430   -3.3090   -1.1820 c3        1 MOL     -0.303780
    147 C48       -11.4390   -4.0570   -0.5650 c3        1 MOL      0.111867
    148 N13       -12.0950   -3.4870    0.6520 n4        1 MOL     -0.205447
    149 H67        -6.3410   -2.3270    2.1020 hn        1 MOL      0.378214
    150 H68        -6.4860   -3.6390    0.1040 h1        1 MOL      0.033873
    151 H69        -7.5160   -3.0000   -1.9500 hc        1 MOL      0.137245
    152 H70        -8.0350   -1.4610   -1.1610 hc        1 MOL      0.137245
    153 H71        -9.1480   -2.6520    0.6030 hc        1 MOL     -0.004702
    154 H72        -8.6240   -4.1960   -0.0170 hc        1 MOL     -0.004702
    155 H73       -10.0220   -3.8500   -2.1050 hc        1 MOL      0.118029
    156 H74       -10.5540   -2.2660   -1.2380 hc        1 MOL      0.118029
    157 H75       -11.2270   -5.0900   -0.2790 hx        1 MOL      0.055221
    158 H76       -12.1920   -4.1260   -1.3480 hx        1 MOL      0.055221
    159 H77       -12.8420   -4.0660    1.0090 hn        1 MOL      0.209060
    160 H78       -11.3950   -3.2170    1.3280 hn        1 MOL      0.209060
    161 H79       -12.6600   -2.6770    0.4220 hn        1 MOL      0.209060
    162 N14        -4.6020   -3.1420   -1.6110 n         1 MOL     -0.383909
    163 C49        -3.3050   -2.9270   -2.2790 c3        1 MOL      0.087441
    164 C50        -2.0960   -2.7490   -1.3390 c         1 MOL      0.304651
    165 O22        -1.4470   -1.6800   -1.4960 o         1 MOL     -0.534349
    166 C51        -2.9850   -4.1920   -3.1610 c3        1 MOL     -0.064054
    167 C52        -3.4730   -4.2390   -4.5960 c3        1 MOL     -0.423152
    168 C53        -3.3570   -5.6820   -5.1380 c         1 MOL      0.709778
    169 O23        -2.4150   -5.9480   -5.8950 o         1 MOL     -0.619948
    170 O24        -4.0940   -6.6340   -4.6890 o         1 MOL     -0.619948
    171 H80        -5.1670   -3.9910   -1.6100 hn        1 MOL      0.229687
    172 H81        -3.4120   -2.1390   -3.0140 h1        1 MOL      0.091687
    173 H82        -3.1490   -5.1400   -2.6360 hc        1 MOL      0.122939
    174 H83        -1.9040   -4.3200   -3.1480 hc        1 MOL      0.122939
    175 H84        -2.8790   -3.5100   -5.1470 hc        1 MOL      0.115663
    176 H85        -4.5350   -3.9990   -4.5770 hc        1 MOL      0.115663
    177 N15        -1.6560   -3.6090   -0.4110 n         1 MOL     -0.309666
    178 C54        -2.1050   -4.8930    0.0550 c3        1 MOL      0.089099
    179 H86        -2.4640   -5.4800   -0.7890 h1        1 MOL     -0.002615
    180 H87        -1.2770   -5.4160    0.5340 h1        1 MOL     -0.002615
    181 H88        -2.9130   -4.7570    0.7740 h1        1 MOL     -0.002615
    182 H89        -0.9530   -3.2120    0.2000 hn        1 MOL      0.392269
    183 Ca1        -0.5500    0.8150   -1.3180 Ca        1 MOL      1.787413
    184 O25        -3.2400    0.8690   -1.3920 oh        1 MOL     -0.853250
    185 H90        -3.8160    0.1470   -1.1430 ho        1 MOL      0.401682
    186 H91        -3.8030    1.6460   -1.3200 ho        1 MOL      0.401682
    187 O26         1.4710   -0.0740   -2.9940 oh        1 MOL     -0.853250
    188 H92         2.3250   -0.2470   -2.5850 ho        1 MOL      0.401682
    189 H93         1.6280    0.7180   -3.5190 ho        1 MOL      0.401682
    190 O27        -2.0110    0.3270   -3.9600 oh        1 MOL     -0.853250
    191 H94        -1.8280    0.7960   -4.7770 ho        1 MOL      0.401682
    192 H95        -2.9530    0.1970   -3.9630 ho        1 MOL      0.401682
@<TRIPOS>BOND
     1    1    2 1   
     2    1    4 1   
     3    1    5 1   
     4    1    6 1   
     5    2    3 2   
     6    2    7 1   
     7    7    8 1   
     8    7   15 1   
     9    8    9 1   
    10    8   11 1   
    11    8   16 1   
    12    9   10 2   
    13    9   19 1   
    14   11   12 1   
    15   11   17 1   
    16   11   18 1   
    17   12   13 1   
    18   12   14 1   
    19   19   20 1   
    20   19   28 1   
    21   20   21 1   
    22   20   23 1   
    23   20   29 1   
    24   21   22 2   
    25   21   41 1   
    26   23   24 1   
    27   23   30 1   
    28   23   31 1   
    29   24   25 1   
    30   24   32 1   
    31   24   33 1   
    32   25   26 1   
    33   25   34 1   
    34   25   35 1   
    35   26   27 1   
    36   26   36 1   
    37   26   37 1   
    38   27   38 1   
    39   27   39 1   
    40   27   40 1   
    41   41   42 1   
    42   41   49 1   
    43   42   43 1   
    44   42   45 1   
    45   42   50 1   
    46   43   44 2   
    47   43   53 1   
    48   45   46 1   
    49   45   51 1   
    50   45   52 1   
    51   46   47 1   
    52   46   48 1   
    53   53   54 1   
    54   53   57 1   
    55   54   55 1   
    56   54   58 1   
    57   54   59 1   
    58   55   56 2   
    59   55   60 1   
    60   60   61 1   
    61   60   68 1   
    62   61   62 1   
    63   61   64 1   
    64   61   69 1   
    65   62   63 2   
    66   62   72 1   
    67   64   65 1   
    68   64   70 1   
    69   64   71 1   
    70   65   66 1   
    71   65   67 1   
    72   72   73 1   
    73   72   76 1   
    74   73   74 1   
    75   73   77 1   
    76   73   78 1   
    77   74   75 2   
    78   74   79 1   
    79   79   80 1   
    80   79   86 1   
    81   80   81 1   
    82   80   83 1   
    83   80   87 1   
    84   81   82 2   
    85   81   93 1   
    86   83   84 1   
    87   83   85 1   
    88   83   88 1   
    89   84   90 1   
    90   84   91 1   
    91   84   92 1   
    92   85   89 1   
    93   93   94 1   
    94   93  101 1   
    95   94   95 1   
    96   94   97 1   
    97   94  102 1   
    98   95   96 2   
    99   95  112 1   
   100   97   98 1   
   101   97   99 1   
   102   97  103 1   
   103   98  100 1   
   104   98  104 1   
   105   98  105 1   
   106   99  106 1   
   107   99  107 1   
   108   99  108 1   
   109  100  109 1   
   110  100  110 1   
   111  100  111 1   
   112  112  113 1   
   113  112  119 1   
   114  113  114 1   
   115  113  116 1   
   116  113  120 1   
   117  114  115 2   
   118  114  126 1   
   119  116  117 1   
   120  116  118 1   
   121  116  121 1   
   122  117  123 1   
   123  117  124 1   
   124  117  125 1   
   125  118  122 1   
   126  126  127 1   
   127  126  133 1   
   128  127  128 1   
   129  127  130 1   
   130  127  134 1   
   131  128  129 2   
   132  128  140 1   
   133  130  131 1   
   134  130  132 1   
   135  130  135 1   
   136  131  137 1   
   137  131  138 1   
   138  131  139 1   
   139  132  136 1   
   140  140  141 1   
   141  140  149 1   
   142  141  142 1   
   143  141  144 1   
   144  141  150 1   
   145  142  143 2   
   146  142  162 1   
   147  144  145 1   
   148  144  151 1   
   149  144  152 1   
   150  145  146 1   
   151  145  153 1   
   152  145  154 1   
   153  146  147 1   
   154  146  155 1   
   155  146  156 1   
   156  147  148 1   
   157  147  157 1   
   158  147  158 1   
   159  148  159 1   
   160  148  160 1   
   161  148  161 1   
   162  162  163 1   
   163  162  171 1   
   164  163  164 1   
   165  163  166 1   
   166  163  172 1   
   167  164  165 2   
   168  164  177 1   
   169  166  167 1   
   170  166  173 1   
   171  166  174 1   
   172  167  168 1   
   173  167  175 1   
   174  167  176 1   
   175  168  169 1   
   176  168  170 1   
   177  177  178 1   
   178  177  182 1   
   179  178  179 1   
   180  178  180 1   
   181  178  181 1   
   182  184  185 1   
   183  184  186 1   
   184  187  188 1   
   185  187  189 1   
   186  190  191 1   
   187  190  192 1   
@<TRIPOS>SUBSTRUCTURE
     1 MOL         1 TEMP              0 ****  ****    0 ROOT
