@<TRIPOS>MOLECULE
MOL
  201   193     1     0     0
SMALL
resp


@<TRIPOS>ATOM
      1 C1          4.0260    3.6720    3.2940 c3        1 MOL     -0.618307
      2 C2          2.8850    3.6640    2.2250 c         1 MOL      1.149658
      3 O1          2.5510    2.5580    1.7110 o         1 MOL     -0.620560
      4 H1          4.0170    2.7290    3.8410 hc        1 MOL      0.143212
      5 H2          4.9890    3.7950    2.7980 hc        1 MOL      0.143212
      6 H3          3.8670    4.4950    3.9900 hc        1 MOL      0.143212
      7 N1          2.3120    4.8170    1.9170 n         1 MOL     -1.333420
      8 C3          1.2040    5.1470    1.0580 c3        1 MOL      0.596215
      9 C4         -0.1070    4.4150    1.5160 c         1 MOL      0.340118
     10 O2         -1.0550    4.3850    0.7790 o         1 MOL     -0.454632
     11 C5          1.4620    4.7980   -0.4560 c3        1 MOL     -1.202467
     12 C6          2.8070    5.4000   -1.0680 c         1 MOL      1.045097
     13 O3          3.7840    5.8880   -0.4510 o         1 MOL     -0.680036
     14 O4          2.8720    5.4790   -2.3670 o         1 MOL     -0.680036
     15 H4          2.6370    5.5530    2.5320 hn        1 MOL      0.442624
     16 H5          1.1560    6.2240    1.2450 h1        1 MOL      0.084031
     17 H6          0.5900    5.0890   -1.0480 hc        1 MOL      0.304653
     18 H7          1.5360    3.7130   -0.5040 hc        1 MOL      0.304653
     19 N2         -0.1450    3.8290    2.6950 n         1 MOL     -0.341779
     20 C7         -1.2830    3.0790    3.2550 c3        1 MOL     -0.523645
     21 C8         -2.3890    4.1150    3.6280 c         1 MOL      0.709747
     22 O5         -2.1110    5.1810    4.1370 o         1 MOL     -0.621630
     23 C9         -0.8090    2.1020    4.4110 c3        1 MOL     -0.006646
     24 C10        -0.2360    2.8370    5.7190 c3        1 MOL      0.169484
     25 C11         0.1720    1.1850    3.7310 c3        1 MOL     -0.007600
     26 C12        -0.0300    1.9910    6.9370 c3        1 MOL     -0.299944
     27 H8          0.5780    4.0970    3.3420 hn        1 MOL      0.385879
     28 H9         -1.6860    2.5610    2.3800 h1        1 MOL      0.367757
     29 H10        -1.6190    1.4590    4.7460 hc        1 MOL      0.084232
     30 H11        -0.9550    3.5690    6.0780 hc        1 MOL     -0.022095
     31 H12         0.5680    3.5360    5.4750 hc        1 MOL     -0.022095
     32 H13        -0.2010    0.9760    2.7250 hc        1 MOL      0.001921
     33 H14         1.2070    1.5350    3.6470 hc        1 MOL      0.001921
     34 H15         0.2610    0.2190    4.2210 hc        1 MOL      0.001921
     35 H16         0.5590    1.0890    6.7630 hc        1 MOL      0.071468
     36 H17         0.4150    2.5270    7.7850 hc        1 MOL      0.071468
     37 H18        -1.0220    1.6550    7.2440 hc        1 MOL      0.071468
     38 N3         -3.6640    3.9040    3.3660 n         1 MOL     -0.438542
     39 C13        -4.3410    2.6560    2.9850 c3        1 MOL      0.097642
     40 C14        -4.6870    2.5360    1.4540 c         1 MOL      0.337351
     41 O6         -5.4590    1.6110    1.0780 o         1 MOL     -0.380560
     42 C15        -5.5470    2.2800    3.9130 c3        1 MOL     -0.257984
     43 C16        -6.5180    3.4610    4.2980 c         1 MOL      0.698429
     44 O7         -6.7160    4.3410    3.4260 o         1 MOL     -0.661796
     45 O8         -6.9720    3.5560    5.4600 o         1 MOL     -0.661796
     46 H19        -4.3140    4.6500    3.5490 hn        1 MOL      0.293829
     47 H20        -3.6250    1.8460    3.1140 h1        1 MOL      0.051685
     48 H21        -5.2970    1.7050    4.8100 hc        1 MOL      0.066952
     49 H22        -6.1480    1.5130    3.4270 hc        1 MOL      0.066952
     50 N4         -4.1360    3.4180    0.6030 n         1 MOL     -0.232044
     51 C17        -4.1130    3.4080   -0.8620 c3        1 MOL     -0.102466
     52 C18        -5.5190    3.0380   -1.3750 c         1 MOL      0.574828
     53 O9         -6.4580    3.8230   -1.1020 o         1 MOL     -0.566209
     54 H23        -3.5950    4.1270    1.0690 hn        1 MOL      0.224231
     55 H24        -3.3640    2.6990   -1.2230 h1        1 MOL      0.052485
     56 H25        -3.8560    4.4240   -1.1840 h1        1 MOL      0.052485
     57 N5         -5.7010    2.0300   -2.2380 n         1 MOL     -0.504458
     58 C19        -7.0080    1.6150   -2.7740 c3        1 MOL      0.147380
     59 C20        -7.7660    0.5440   -1.9730 c         1 MOL      0.314796
     60 O10        -8.6130   -0.1640   -2.5600 o         1 MOL     -0.525085
     61 C21        -6.6950    1.0800   -4.2110 c3        1 MOL     -0.187627
     62 C22        -5.6970   -0.0660   -4.2710 c         1 MOL      0.724391
     63 O11        -4.8320   -0.2070   -3.3630 o         1 MOL     -0.697697
     64 O12        -5.6060   -0.7650   -5.3090 o         1 MOL     -0.697697
     65 H26        -4.9690    1.3530   -2.4000 hn        1 MOL      0.301626
     66 H27        -7.6220    2.5160   -2.8740 h1        1 MOL      0.066286
     67 H28        -6.3120    1.8990   -4.8050 hc        1 MOL      0.026314
     68 H29        -7.6150    0.7340   -4.6950 hc        1 MOL      0.026314
     69 N6         -7.5120    0.4070   -0.7070 n         1 MOL     -0.091230
     70 C23        -7.9740   -0.6490    0.2250 c3        1 MOL     -0.419851
     71 C24        -7.4860   -2.0760    0.0140 c         1 MOL      0.529452
     72 O13        -8.0410   -2.9370    0.6890 o         1 MOL     -0.560746
     73 H30        -6.8090    1.0380   -0.3510 hn        1 MOL      0.138450
     74 H31        -9.0630   -0.7500    0.2920 h1        1 MOL      0.180924
     75 H32        -7.5260   -0.3050    1.1580 h1        1 MOL      0.180924
     76 N7         -6.6340   -2.3980   -0.9860 n         1 MOL     -0.086390
     77 C25        -6.0540   -3.7870   -1.1200 c3        1 MOL      0.125953
     78 C26        -5.1200   -4.1920    0.0870 c         1 MOL      0.297203
     79 O14        -4.9240   -5.3570    0.3630 o         1 MOL     -0.498195
     80 C27        -7.0310   -4.8240   -1.6800 c3        1 MOL      0.199051
     81 C28        -7.3700   -4.4540   -3.1460 c3        1 MOL     -0.324746
     82 C29        -8.3880   -5.3850   -3.8380 c         1 MOL      0.751808
     83 N8         -8.7550   -5.0150   -4.9920 n         1 MOL     -0.774574
     84 O15        -8.7190   -6.5310   -3.4150 o         1 MOL     -0.629927
     85 H33        -6.3840   -1.6540   -1.6280 hn        1 MOL      0.083480
     86 H34        -5.2920   -3.6860   -1.8870 h1        1 MOL      0.058459
     87 H35        -7.9520   -4.9690   -1.1100 hc        1 MOL     -0.033634
     88 H36        -6.4870   -5.7710   -1.6560 hc        1 MOL     -0.033634
     89 H37        -6.4480   -4.5690   -3.7200 hc        1 MOL      0.074164
     90 H38        -7.9330   -3.5200   -3.1200 hc        1 MOL      0.074164
     91 H39        -8.2900   -4.1490   -5.2400 hn        1 MOL      0.350236
     92 H40        -9.4740   -5.4340   -5.5620 hn        1 MOL      0.350236
     93 N9         -4.6840   -3.2580    0.9150 n         1 MOL     -0.073995
     94 C30        -3.9760   -3.5370    2.1650 c3        1 MOL     -0.074596
     95 C31        -2.4130   -3.2900    2.0870 c         1 MOL      0.612875
     96 O16        -1.7030   -4.0100    2.7520 o         1 MOL     -0.540152
     97 C32        -4.5450   -2.7040    3.3610 c3        1 MOL      0.302064
     98 C33        -4.4580   -1.1760    3.1810 c3        1 MOL     -0.187165
     99 C34        -6.0110   -3.0020    3.7410 c3        1 MOL     -0.187165
    100 H41        -4.6570   -2.3110    0.5520 hn        1 MOL      0.047426
    101 H42        -4.1560   -4.5600    2.5000 h1        1 MOL      0.083283
    102 H43        -3.8980   -2.9420    4.2080 hc        1 MOL     -0.067690
    103 H44        -5.0650   -0.7480    2.3830 hc        1 MOL      0.026039
    104 H45        -4.7550   -0.6260    4.0730 hc        1 MOL      0.026039
    105 H46        -3.4320   -0.8710    3.0100 hc        1 MOL      0.026039
    106 H47        -6.0870   -4.0680    3.9390 hc        1 MOL      0.026039
    107 H48        -6.3220   -2.4520    4.6300 hc        1 MOL      0.026039
    108 H49        -6.5710   -2.7740    2.8290 hc        1 MOL      0.026039
    109 N10        -2.0940   -2.3510    1.1750 n         1 MOL     -0.739952
    110 C35        -0.7300   -1.9090    0.8290 c3        1 MOL      0.430272
    111 C36         0.2410   -3.0010    0.2820 c         1 MOL      0.443925
    112 O17        -0.2980   -4.0390   -0.1900 o         1 MOL     -0.447134
    113 C37        -0.8840   -0.8050   -0.2970 c3        1 MOL     -0.313457
    114 C38        -1.3280    0.5180    0.2900 c         1 MOL      0.633156
    115 N11        -0.7800    1.6560   -0.0010 n         1 MOL     -0.600530
    116 O18        -2.2450    0.4680    1.0970 o         1 MOL     -0.538943
    117 H50        -2.8520   -1.8200    0.7520 hn        1 MOL      0.390352
    118 H51        -0.3220   -1.4910    1.7460 h1        1 MOL     -0.012631
    119 H52        -1.5780   -1.0990   -1.0720 hc        1 MOL      0.080034
    120 H53         0.0860   -0.5650   -0.7330 hc        1 MOL      0.080034
    121 H54         0.0140    1.7550   -0.6210 hn        1 MOL      0.301912
    122 H55        -1.1750    2.4850    0.4300 hn        1 MOL      0.301912
    123 N12         1.5110   -2.6740    0.2220 n         1 MOL     -0.618903
    124 C39         2.5980   -3.5230   -0.3190 c3        1 MOL      0.440618
    125 C40         3.8210   -3.6750    0.6120 c         1 MOL      0.561881
    126 O19         4.0850   -2.8110    1.4620 o         1 MOL     -0.569462
    127 C41         3.0320   -3.2030   -1.7720 c3        1 MOL     -0.097140
    128 C42         1.9180   -3.4540   -2.8020 ca        1 MOL     -0.102104
    129 C43         1.2160   -2.3550   -3.3080 ca        1 MOL     -0.042825
    130 C44         1.5650   -4.7650   -3.1440 ca        1 MOL     -0.042825
    131 C45         0.2800   -2.5250   -4.3250 ca        1 MOL     -0.348566
    132 C46         0.4560   -4.9360   -4.1000 ca        1 MOL     -0.348566
    133 C47        -0.1200   -3.7950   -4.7100 ca        1 MOL      0.440211
    134 O20        -0.9840   -3.9070   -5.7560 oh        1 MOL     -0.523538
    135 H56         1.7110   -1.7440    0.5600 hn        1 MOL      0.289688
    136 H57         2.3170   -4.5680   -0.3680 h1        1 MOL     -0.015442
    137 H58         3.8760   -3.8500   -2.0130 hc        1 MOL      0.036942
    138 H59         3.3660   -2.1620   -1.8290 hc        1 MOL      0.036942
    139 H60         1.5370   -1.3480   -3.0870 ha        1 MOL      0.108800
    140 H61         2.0210   -5.5650   -2.5720 ha        1 MOL      0.108800
    141 H62        -0.1740   -1.6750   -4.8070 ha        1 MOL      0.168054
    142 H63        -0.0800   -5.8340   -4.3630 ha        1 MOL      0.168054
    143 H64        -1.2930   -3.0480   -6.0460 ho        1 MOL      0.374911
    144 N13         4.5330   -4.8240    0.3440 n         1 MOL     -0.757063
    145 C48         5.7680   -5.2300    0.9340 c3        1 MOL      0.383328
    146 C49         6.8170   -5.6490   -0.1070 c         1 MOL      0.453817
    147 O21         6.7510   -6.7680   -0.5560 o         1 MOL     -0.542822
    148 C50         5.4440   -6.4320    1.9910 c3        1 MOL     -0.131187
    149 C51         6.7780   -6.9430    2.6890 c3        1 MOL     -0.268071
    150 C52         6.5040   -8.1090    3.6570 c         1 MOL      0.747684
    151 O22         6.3070   -7.9100    4.8680 o         1 MOL     -0.617376
    152 O23         6.5370   -9.2810    3.2800 o         1 MOL     -0.617376
    153 H65         4.1610   -5.3660   -0.4160 hn        1 MOL      0.366720
    154 H66         6.2390   -4.4360    1.5120 h1        1 MOL      0.049447
    155 H67         4.9790   -7.3390    1.6090 hc        1 MOL      0.060801
    156 H68         4.7940   -5.9080    2.6810 hc        1 MOL      0.060801
    157 H69         7.3300   -6.1360    3.1680 hc        1 MOL      0.065518
    158 H70         7.5400   -7.2410    1.9530 hc        1 MOL      0.065518
    159 N14         7.5750   -4.7030   -0.6210 n         1 MOL     -0.356208
    160 C53         7.6080   -3.2910   -0.1490 c3        1 MOL     -0.191553
    161 C54         8.3810   -3.1730    1.1980 c         1 MOL      0.532189
    162 O24         9.1420   -4.0570    1.6370 o         1 MOL     -0.491513
    163 C55         8.0880   -2.3420   -1.2590 c3        1 MOL      0.291106
    164 C56         9.5670   -2.4750   -1.7310 c3        1 MOL     -0.399793
    165 C57         9.6580   -3.2380   -3.0600 c         1 MOL      0.819565
    166 O25        10.0910   -2.7400   -4.1250 o         1 MOL     -0.694913
    167 O26         9.3990   -4.4400   -3.0430 o         1 MOL     -0.694913
    168 H71         8.2770   -4.9270   -1.3150 hn        1 MOL      0.304071
    169 H72         6.6170   -2.8560    0.0000 h1        1 MOL      0.012954
    170 H73         7.9460   -1.4040   -0.7260 hc        1 MOL     -0.046197
    171 H74         7.4560   -2.3800   -2.1450 hc        1 MOL     -0.046197
    172 H75        10.1710   -3.0060   -0.9870 hc        1 MOL      0.054788
    173 H76         9.9750   -1.4780   -1.8930 hc        1 MOL      0.054788
    174 N15         8.1040   -2.0000    1.8130 n         1 MOL     -0.325693
    175 C58         8.4850   -1.7050    3.1650 c3        1 MOL     -0.212697
    176 H77         8.6900   -2.6350    3.6960 h1        1 MOL      0.093332
    177 H78         9.3800   -1.0830    3.1650 h1        1 MOL      0.093332
    178 H79         7.6730   -1.1740    3.6640 h1        1 MOL      0.093332
    179 H80         7.5780   -1.2830    1.3280 hn        1 MOL      0.297189
    180 Ca1         4.6730    7.4910   -2.2970 Ca        1 MOL      1.664649
    181 O27         4.7330    9.3100   -0.2290 oh        1 MOL     -0.716826
    182 H81         4.2280    9.3650    0.5860 ho        1 MOL      0.313584
    183 H82         5.1950   10.1380   -0.2770 ho        1 MOL      0.313584
    184 O28         2.2110    8.9120   -1.9230 oh        1 MOL     -0.716826
    185 H83         1.8520    9.0010   -1.0480 ho        1 MOL      0.313584
    186 H84         1.8930    9.6820   -2.3970 ho        1 MOL      0.313584
    187 O29         6.9050    7.2650   -0.9240 oh        1 MOL     -0.716826
    188 H85         7.5320    6.6360   -0.5650 ho        1 MOL      0.313584
    189 H86         7.1780    8.1080   -0.5580 ho        1 MOL      0.313584
    190 O30         5.8380    4.9630   -2.8740 oh        1 MOL     -0.716826
    191 H87         5.7090    4.3450   -3.5850 ho        1 MOL      0.313584
    192 H88         5.9410    4.4130   -2.0940 ho        1 MOL      0.313584
    193 O31         4.6710   10.1010   -2.9940 oh        1 MOL     -0.716826
    194 H89         3.7860   10.4090   -3.1830 ho        1 MOL      0.313584
    195 H90         5.0060   10.7380   -2.3620 ho        1 MOL      0.313584
    196 O32         3.6200    7.6780   -4.5740 oh        1 MOL     -0.716826
    197 H91         2.6780    7.4670   -4.5170 ho        1 MOL      0.313584
    198 H92         3.8500    7.5140   -5.4840 ho        1 MOL      0.313584
    199 O33         6.8270    8.0750   -3.7800 oh        1 MOL     -0.716826
    200 H93         7.5990    8.2520   -3.2530 ho        1 MOL      0.313584
    201 H94         7.1720    7.6970   -4.5960 ho        1 MOL      0.313584
@<TRIPOS>BOND
     1    1    2 1   
     2    1    4 1   
     3    1    5 1   
     4    1    6 1   
     5    2    3 2   
     6    2    7 1   
     7    7    8 1   
     8    7   15 1   
     9    8    9 1   
    10    8   11 1   
    11    8   16 1   
    12    9   10 2   
    13    9   19 1   
    14   11   12 1   
    15   11   17 1   
    16   11   18 1   
    17   12   13 1   
    18   12   14 1   
    19   19   20 1   
    20   19   27 1   
    21   20   21 1   
    22   20   23 1   
    23   20   28 1   
    24   21   22 2   
    25   21   38 1   
    26   23   24 1   
    27   23   25 1   
    28   23   29 1   
    29   24   26 1   
    30   24   30 1   
    31   24   31 1   
    32   25   32 1   
    33   25   33 1   
    34   25   34 1   
    35   26   35 1   
    36   26   36 1   
    37   26   37 1   
    38   38   39 1   
    39   38   46 1   
    40   39   40 1   
    41   39   42 1   
    42   39   47 1   
    43   40   41 2   
    44   40   50 1   
    45   42   43 1   
    46   42   48 1   
    47   42   49 1   
    48   43   44 1   
    49   43   45 1   
    50   50   51 1   
    51   50   54 1   
    52   51   52 1   
    53   51   55 1   
    54   51   56 1   
    55   52   53 2   
    56   52   57 1   
    57   57   58 1   
    58   57   65 1   
    59   58   59 1   
    60   58   61 1   
    61   58   66 1   
    62   59   60 2   
    63   59   69 1   
    64   61   62 1   
    65   61   67 1   
    66   61   68 1   
    67   62   63 1   
    68   62   64 1   
    69   69   70 1   
    70   69   73 1   
    71   70   71 1   
    72   70   74 1   
    73   70   75 1   
    74   71   72 2   
    75   71   76 1   
    76   76   77 1   
    77   76   85 1   
    78   77   78 1   
    79   77   80 1   
    80   77   86 1   
    81   78   79 2   
    82   78   93 1   
    83   80   81 1   
    84   80   87 1   
    85   80   88 1   
    86   81   82 1   
    87   81   89 1   
    88   81   90 1   
    89   82   83 1   
    90   82   84 2   
    91   83   91 1   
    92   83   92 1   
    93   93   94 1   
    94   93  100 1   
    95   94   95 1   
    96   94   97 1   
    97   94  101 1   
    98   95   96 2   
    99   95  109 1   
   100   97   98 1   
   101   97   99 1   
   102   97  102 1   
   103   98  103 1   
   104   98  104 1   
   105   98  105 1   
   106   99  106 1   
   107   99  107 1   
   108   99  108 1   
   109  109  110 1   
   110  109  117 1   
   111  110  111 1   
   112  110  113 1   
   113  110  118 1   
   114  111  112 2   
   115  111  123 1   
   116  113  114 1   
   117  113  119 1   
   118  113  120 1   
   119  114  115 1   
   120  114  116 2   
   121  115  121 1   
   122  115  122 1   
   123  123  124 1   
   124  123  135 1   
   125  124  125 1   
   126  124  127 1   
   127  124  136 1   
   128  125  126 2   
   129  125  144 1   
   130  127  128 1   
   131  127  137 1   
   132  127  138 1   
   133  128  129 ar  
   134  128  130 ar  
   135  129  131 ar  
   136  129  139 1   
   137  130  132 ar  
   138  130  140 1   
   139  131  133 ar  
   140  131  141 1   
   141  132  133 ar  
   142  132  142 1   
   143  133  134 1   
   144  134  143 1   
   145  144  145 1   
   146  144  153 1   
   147  145  146 1   
   148  145  148 1   
   149  145  154 1   
   150  146  147 2   
   151  146  159 1   
   152  148  149 1   
   153  148  155 1   
   154  148  156 1   
   155  149  150 1   
   156  149  157 1   
   157  149  158 1   
   158  150  151 1   
   159  150  152 1   
   160  159  160 1   
   161  159  168 1   
   162  160  161 1   
   163  160  163 1   
   164  160  169 1   
   165  161  162 2   
   166  161  174 1   
   167  163  164 1   
   168  163  170 1   
   169  163  171 1   
   170  164  165 1   
   171  164  172 1   
   172  164  173 1   
   173  165  166 1   
   174  165  167 1   
   175  174  175 1   
   176  174  179 1   
   177  175  176 1   
   178  175  177 1   
   179  175  178 1   
   180  181  182 1   
   181  181  183 1   
   182  184  185 1   
   183  184  186 1   
   184  187  188 1   
   185  187  189 1   
   186  190  191 1   
   187  190  192 1   
   188  193  194 1   
   189  193  195 1   
   190  196  197 1   
   191  196  198 1   
   192  199  200 1   
   193  199  201 1   
@<TRIPOS>SUBSTRUCTURE
     1 MOL         1 TEMP              0 ****  ****    0 ROOT
