@<TRIPOS>MOLECULE
MOL
  178   175     1     0     0
SMALL
resp


@<TRIPOS>ATOM
      1 C1         -0.1330    6.2980   -3.1440 c3        1 MOL     -0.438214
      2 C2          1.2330    6.2250   -2.2490 c         1 MOL      0.703066
      3 O1          1.3200    6.9090   -1.2120 o         1 MOL     -0.567141
      4 H1         -0.8150    5.5080   -2.8280 hc        1 MOL      0.111112
      5 H2         -0.6100    7.2670   -3.0010 hc        1 MOL      0.111112
      6 H3          0.1150    6.1640   -4.1970 hc        1 MOL      0.111112
      7 N1          2.3510    5.5990   -2.7180 n         1 MOL     -0.657739
      8 C3          3.7000    5.7860   -2.1340 c3        1 MOL      0.239277
      9 C4          4.0270    4.7460   -1.0640 c         1 MOL      0.494833
     10 O2          3.7560    3.5590   -1.1900 o         1 MOL     -0.482353
     11 C5          4.7220    5.7590   -3.3150 c3        1 MOL     -0.228149
     12 C6          6.1480    5.9680   -2.7530 c         1 MOL      0.701337
     13 O3          6.9610    5.0240   -2.8890 o         1 MOL     -0.719890
     14 O4          6.4600    7.0450   -2.2030 o         1 MOL     -0.719890
     15 H4          2.3280    5.1180   -3.5980 hn        1 MOL      0.307071
     16 H5          3.7880    6.7580   -1.6410 h1        1 MOL      0.025541
     17 H6          4.5660    6.5710   -4.0410 hc        1 MOL      0.034318
     18 H7          4.6370    4.7690   -3.7750 hc        1 MOL      0.034318
     19 N2          4.7310    5.2790   -0.0110 n         1 MOL     -0.430704
     20 C7          4.8110    4.6310    1.2830 c3        1 MOL      0.342388
     21 C8          3.4860    4.3190    1.9130 c         1 MOL      0.500270
     22 O5          2.6340    5.1940    1.8950 o         1 MOL     -0.566162
     23 C9          5.7350    5.4730    2.1930 c3        1 MOL     -0.352135
     24 H8          5.0240    6.2340   -0.1240 hn        1 MOL      0.259758
     25 H9          5.3250    3.7040    1.0450 h1        1 MOL     -0.028679
     26 H10         5.9830    4.9780    3.1240 hc        1 MOL      0.091190
     27 H11         6.6480    5.7770    1.6850 hc        1 MOL      0.091190
     28 H12         5.2200    6.4290    2.3860 hc        1 MOL      0.091190
     29 N3          3.3010    3.1980    2.6020 n         1 MOL     -0.502845
     30 C10         4.2200    2.0930    3.0130 c3        1 MOL      0.011515
     31 C11         4.2770    0.7970    2.1920 c         1 MOL      0.640256
     32 O6          3.2410    0.2230    1.6480 o         1 MOL     -0.655870
     33 C12         3.8390    1.7270    4.4580 c3        1 MOL     -0.172842
     34 C13         2.3680    1.1330    4.6200 c         1 MOL      0.627696
     35 O7          1.6220    1.0970    3.6190 o         1 MOL     -0.652648
     36 O8          1.9830    0.9190    5.7620 o         1 MOL     -0.652648
     37 H13         2.3570    3.1570    2.9650 hn        1 MOL      0.353205
     38 H14         5.2400    2.4550    3.1580 h1        1 MOL      0.059255
     39 H15         3.9550    2.5650    5.1400 hc        1 MOL      0.035185
     40 H16         4.6240    1.0570    4.8140 hc        1 MOL      0.035185
     41 N4          5.4270    0.1860    2.0990 n         1 MOL     -0.442782
     42 C14         5.7190   -1.0350    1.3510 c3        1 MOL      0.078024
     43 C15         7.1890   -1.1090    0.8490 c         1 MOL      0.582634
     44 O9          7.9900   -0.2980    1.3420 o         1 MOL     -0.522264
     45 H17         6.2130    0.5980    2.5910 hn        1 MOL      0.269634
     46 H18         5.0620   -1.1600    0.4860 h1        1 MOL      0.075487
     47 H19         5.5580   -1.8820    2.0090 h1        1 MOL      0.075487
     48 N5          7.5840   -2.2390    0.1330 n         1 MOL     -0.613206
     49 C16         6.8360   -3.4750   -0.1910 c3        1 MOL      0.065937
     50 C17         6.0580   -3.3750   -1.5250 c         1 MOL      0.598306
     51 O10         6.3890   -2.4790   -2.3210 o         1 MOL     -0.501736
     52 C18         7.9000   -4.5770   -0.0390 c3        1 MOL     -0.133675
     53 C19         8.4590   -4.5530    1.3450 c         1 MOL      0.672117
     54 N6          9.5330   -5.2330    1.5020 n         1 MOL     -0.777626
     55 O11         7.8870   -4.0730    2.3100 o         1 MOL     -0.538033
     56 H20         8.5520   -2.2900   -0.1550 hn        1 MOL      0.345758
     57 H21         6.1040   -3.7400    0.5730 h1        1 MOL      0.030266
     58 H22         8.7470   -4.3190   -0.6880 hc        1 MOL      0.033736
     59 H23         7.5980   -5.5980   -0.2620 hc        1 MOL      0.033736
     60 H24         9.9250   -5.6710    0.6850 hn        1 MOL      0.363145
     61 H25         9.8390   -5.2310    2.4580 hn        1 MOL      0.363145
     62 N7          5.1220   -4.2850   -1.7550 n         1 MOL     -0.541150
     63 C20         4.4240   -4.5130   -3.0470 c3        1 MOL      0.045944
     64 C21         3.0080   -5.0460   -2.8700 c         1 MOL      0.528134
     65 O12         2.6300   -5.8170   -3.7260 o         1 MOL     -0.563628
     66 H26         4.8300   -4.8600   -0.9740 hn        1 MOL      0.318092
     67 H27         4.9610   -5.2190   -3.6850 h1        1 MOL      0.071179
     68 H28         4.3140   -3.6070   -3.6570 h1        1 MOL      0.071179
     69 N8          2.3190   -4.6890   -1.8270 n         1 MOL     -0.341640
     70 C22         0.9930   -5.2170   -1.5320 c3        1 MOL      0.089744
     71 C23        -0.1380   -4.1810   -1.5550 c         1 MOL      0.537760
     72 O13         0.1950   -3.0270   -1.2730 o         1 MOL     -0.555435
     73 C24         1.0410   -6.0310   -0.2380 c3        1 MOL      0.364130
     74 C25         1.6940   -7.4330   -0.4720 c3        1 MOL     -0.446767
     75 O14         1.8130   -5.5130    0.8440 oh        1 MOL     -0.618380
     76 H29         2.7870   -4.2200   -1.0540 hn        1 MOL      0.226855
     77 H30         0.7280   -5.8930   -2.3490 h1        1 MOL      0.048988
     78 H31         0.0320   -6.1340    0.1540 h1        1 MOL     -0.004741
     79 H32         1.3060   -5.8620    1.5790 ho        1 MOL      0.411632
     80 H33         2.6980   -7.2270   -0.8520 hc        1 MOL      0.105020
     81 H34         1.7180   -8.0170    0.4480 hc        1 MOL      0.105020
     82 H35         0.9890   -7.8740   -1.1760 hc        1 MOL      0.105020
     83 N9         -1.4180   -4.5140   -1.7880 n         1 MOL     -0.483114
     84 C26        -2.6080   -3.6780   -1.3550 c3        1 MOL     -0.235432
     85 C27        -2.8860   -3.8170    0.1190 c         1 MOL      0.709798
     86 O15        -3.2430   -4.9220    0.5970 o         1 MOL     -0.605078
     87 C28        -3.8660   -4.0660   -2.2340 c3        1 MOL      0.073476
     88 C29        -5.1650   -3.2890   -1.8700 c3        1 MOL      0.192023
     89 C30        -3.6130   -3.9740   -3.8310 c3        1 MOL     -0.201845
     90 C31        -6.3440   -3.9160   -2.6250 c3        1 MOL     -0.169618
     91 H36        -1.6040   -5.5020   -1.8680 hn        1 MOL      0.277752
     92 H37        -2.2920   -2.6830   -1.6500 h1        1 MOL      0.277275
     93 H38        -3.9450   -5.1100   -1.9410 hc        1 MOL      0.020014
     94 H39        -5.2330   -2.2480   -2.1840 hc        1 MOL     -0.041100
     95 H40        -5.3620   -3.3820   -0.8030 hc        1 MOL     -0.041100
     96 H41        -3.7550   -2.9350   -4.1120 hc        1 MOL      0.048313
     97 H42        -2.6300   -4.2330   -4.2020 hc        1 MOL      0.048313
     98 H43        -4.3610   -4.5830   -4.3400 hc        1 MOL      0.048313
     99 H44        -6.3450   -5.0060   -2.5680 hc        1 MOL      0.025030
    100 H45        -7.2900   -3.5290   -2.2540 hc        1 MOL      0.025030
    101 H46        -6.1730   -3.6350   -3.6630 hc        1 MOL      0.025030
    102 N10        -2.8690   -2.6980    0.8300 n         1 MOL     -0.511764
    103 C32        -3.1570   -2.5740    2.3030 c3        1 MOL      0.198579
    104 C33        -4.1570   -1.3830    2.6760 c         1 MOL      0.355423
    105 O16        -4.5060   -1.0790    3.8480 o         1 MOL     -0.497560
    106 C34        -1.9860   -2.6040    3.1810 c3        1 MOL     -0.155253
    107 C35        -0.9960   -1.5250    2.8060 c         1 MOL      0.869865
    108 O17        -1.3710   -0.3580    2.7280 o         1 MOL     -0.815549
    109 O18         0.1870   -1.8530    2.4610 o         1 MOL     -0.815549
    110 H47        -2.6120   -1.8380    0.3560 hn        1 MOL      0.236339
    111 H48        -3.7540   -3.4240    2.6340 h1        1 MOL      0.040327
    112 H49        -1.5420   -3.5890    3.0300 hc        1 MOL      0.031492
    113 H50        -2.2830   -2.4870    4.2290 hc        1 MOL      0.031492
    114 N11        -4.6810   -0.7340    1.6310 n         1 MOL     -0.261099
    115 C36        -5.7850    0.1880    1.6790 c3        1 MOL      0.284553
    116 C37        -5.7220    1.1910    0.4790 c         1 MOL      0.338754
    117 O19        -6.6050    1.2160   -0.4090 o         1 MOL     -0.512508
    118 C38        -7.0910   -0.6350    1.7090 c3        1 MOL     -0.417059
    119 C39        -8.1970   -0.0480    2.6680 ca        1 MOL      0.165944
    120 C40        -8.1790   -0.4270    4.0220 ca        1 MOL     -0.168295
    121 C41        -9.3340    0.7090    2.1540 ca        1 MOL     -0.168295
    122 C42        -9.1690    0.0930    4.9040 ca        1 MOL     -0.093214
    123 C43       -10.3640    1.1030    2.9560 ca        1 MOL     -0.093214
    124 C44       -10.2970    0.7510    4.3420 ca        1 MOL     -0.196012
    125 H51        -4.2900   -0.9300    0.7220 hn        1 MOL      0.160681
    126 H52        -5.7420    0.8020    2.5830 h1        1 MOL      0.026176
    127 H53        -6.7670   -1.5780    2.1710 hc        1 MOL      0.132412
    128 H54        -7.4560   -0.7800    0.7020 hc        1 MOL      0.132412
    129 H55        -7.4220   -1.0990    4.4090 ha        1 MOL      0.124089
    130 H56        -9.3600    0.9430    1.1040 ha        1 MOL      0.124089
    131 H57        -9.0700   -0.0890    5.9590 ha        1 MOL      0.107614
    132 H58       -11.1870    1.6440    2.5350 ha        1 MOL      0.107614
    133 H59       -11.0440    1.0520    5.0610 ha        1 MOL      0.106525
    134 N12        -4.7630    2.1590    0.4090 n         1 MOL     -0.104115
    135 C45        -4.7210    3.2530   -0.5210 c3        1 MOL      0.028828
    136 C46        -4.6570    2.8610   -1.9520 c         1 MOL      0.265376
    137 O20        -5.1660    3.5880   -2.8240 o         1 MOL     -0.530631
    138 C47        -3.4780    4.0650   -0.1390 c3        1 MOL     -0.005365
    139 C48        -3.3740    3.8630    1.3950 c3        1 MOL     -0.151684
    140 C49        -3.7540    2.3750    1.4430 c3        1 MOL     -0.066617
    141 H60        -5.6670    3.7760   -0.3690 h1        1 MOL      0.066484
    142 H61        -2.6240    3.7090   -0.7010 hc        1 MOL      0.041946
    143 H62        -3.6500    5.1230   -0.3070 hc        1 MOL      0.041946
    144 H63        -2.4070    4.1020    1.8450 hc        1 MOL      0.066420
    145 H64        -4.0220    4.5220    1.9590 hc        1 MOL      0.066420
    146 H65        -2.8510    1.7880    1.2600 h1        1 MOL      0.099407
    147 H66        -4.2130    2.1910    2.4080 h1        1 MOL      0.099407
    148 N13        -4.0680    1.7550   -2.2850 n         1 MOL     -0.046310
    149 C50        -4.0030    1.2300   -3.6610 c3        1 MOL     -0.152461
    150 C51        -5.4170    0.9770   -4.2680 c         1 MOL      0.510103
    151 O21        -5.5900    1.2650   -5.4150 o         1 MOL     -0.549557
    152 C52        -3.1490   -0.0490   -3.6680 c3        1 MOL     -0.120748
    153 C53        -1.7930   -0.0390   -2.8360 c3        1 MOL     -0.122642
    154 C54        -1.8720    0.0410   -1.3110 c         1 MOL      0.540904
    155 O22        -0.9520    0.5490   -0.7000 o         1 MOL     -0.644515
    156 O23        -2.9350   -0.3010   -0.7300 o         1 MOL     -0.644515
    157 H67        -3.6660    1.1910   -1.5410 hn        1 MOL      0.194647
    158 H68        -3.4770    2.0130   -4.2090 h1        1 MOL      0.118889
    159 H69        -2.8840   -0.1150   -4.7250 hc        1 MOL      0.048007
    160 H70        -3.7490   -0.9290   -3.4220 hc        1 MOL      0.048007
    161 H71        -1.1040    0.7070   -3.2270 hc        1 MOL      0.062335
    162 H72        -1.2470   -0.9250   -3.1480 hc        1 MOL      0.062335
    163 N14        -6.4340    0.6060   -3.4430 n         1 MOL     -0.130596
    164 C55        -7.8170    0.4400   -3.8410 c3        1 MOL     -0.239177
    165 H73        -8.2140   -0.4730   -3.3980 h1        1 MOL      0.092830
    166 H74        -8.3990    1.2940   -3.4960 h1        1 MOL      0.092830
    167 H75        -7.8770    0.3730   -4.9270 h1        1 MOL      0.092830
    168 H76        -6.1120    0.5440   -2.4860 hn        1 MOL      0.198160
    169 Ca1         0.6350    0.3670    1.2630 Ca        1 MOL      1.729633
    170 O24         1.9910   -1.0750   -0.5670 oh        1 MOL     -0.791050
    171 H77         1.4110   -1.5140   -1.1770 ho        1 MOL      0.375623
    172 H78         2.5890   -1.7570   -0.2600 ho        1 MOL      0.375623
    173 O25         0.0640    2.9510    1.7480 oh        1 MOL     -0.791050
    174 H79        -0.0460    3.7240    1.1920 ho        1 MOL      0.375623
    175 H80        -0.1630    3.2510    2.6310 ho        1 MOL      0.375623
    176 O26         1.8080    1.9300   -0.6820 oh        1 MOL     -0.791050
    177 H81         1.0410    2.0150   -1.2420 ho        1 MOL      0.375623
    178 H82         2.3530    2.6870   -0.9040 ho        1 MOL      0.375623
@<TRIPOS>BOND
     1    1    2 1   
     2    1    4 1   
     3    1    5 1   
     4    1    6 1   
     5    2    3 2   
     6    2    7 1   
     7    7    8 1   
     8    7   15 1   
     9    8    9 1   
    10    8   11 1   
    11    8   16 1   
    12    9   10 2   
    13    9   19 1   
    14   11   12 1   
    15   11   17 1   
    16   11   18 1   
    17   12   13 1   
    18   12   14 1   
    19   19   20 1   
    20   19   24 1   
    21   20   21 1   
    22   20   23 1   
    23   20   25 1   
    24   21   22 2   
    25   21   29 1   
    26   23   26 1   
    27   23   27 1   
    28   23   28 1   
    29   29   30 1   
    30   29   37 1   
    31   30   31 1   
    32   30   33 1   
    33   30   38 1   
    34   31   32 2   
    35   31   41 1   
    36   33   34 1   
    37   33   39 1   
    38   33   40 1   
    39   34   35 1   
    40   34   36 1   
    41   41   42 1   
    42   41   45 1   
    43   42   43 1   
    44   42   46 1   
    45   42   47 1   
    46   43   44 2   
    47   43   48 1   
    48   48   49 1   
    49   48   56 1   
    50   49   50 1   
    51   49   52 1   
    52   49   57 1   
    53   50   51 2   
    54   50   62 1   
    55   52   53 1   
    56   52   58 1   
    57   52   59 1   
    58   53   54 1   
    59   53   55 2   
    60   54   60 1   
    61   54   61 1   
    62   62   63 1   
    63   62   66 1   
    64   63   64 1   
    65   63   67 1   
    66   63   68 1   
    67   64   65 2   
    68   64   69 1   
    69   69   70 1   
    70   69   76 1   
    71   70   71 1   
    72   70   73 1   
    73   70   77 1   
    74   71   72 2   
    75   71   83 1   
    76   73   74 1   
    77   73   75 1   
    78   73   78 1   
    79   74   80 1   
    80   74   81 1   
    81   74   82 1   
    82   75   79 1   
    83   83   84 1   
    84   83   91 1   
    85   84   85 1   
    86   84   87 1   
    87   84   92 1   
    88   85   86 2   
    89   85  102 1   
    90   87   88 1   
    91   87   89 1   
    92   87   93 1   
    93   88   90 1   
    94   88   94 1   
    95   88   95 1   
    96   89   96 1   
    97   89   97 1   
    98   89   98 1   
    99   90   99 1   
   100   90  100 1   
   101   90  101 1   
   102  102  103 1   
   103  102  110 1   
   104  103  104 1   
   105  103  106 1   
   106  103  111 1   
   107  104  105 2   
   108  104  114 1   
   109  106  107 1   
   110  106  112 1   
   111  106  113 1   
   112  107  108 1   
   113  107  109 1   
   114  114  115 1   
   115  114  125 1   
   116  115  116 1   
   117  115  118 1   
   118  115  126 1   
   119  116  117 2   
   120  116  134 1   
   121  118  119 1   
   122  118  127 1   
   123  118  128 1   
   124  119  120 ar  
   125  119  121 ar  
   126  120  122 ar  
   127  120  129 1   
   128  121  123 ar  
   129  121  130 1   
   130  122  124 ar  
   131  122  131 1   
   132  123  124 ar  
   133  123  132 1   
   134  124  133 1   
   135  134  135 1   
   136  134  140 1   
   137  135  136 1   
   138  135  138 1   
   139  135  141 1   
   140  136  137 2   
   141  136  148 1   
   142  138  139 1   
   143  138  142 1   
   144  138  143 1   
   145  139  140 1   
   146  139  144 1   
   147  139  145 1   
   148  140  146 1   
   149  140  147 1   
   150  148  149 1   
   151  148  157 1   
   152  149  150 1   
   153  149  152 1   
   154  149  158 1   
   155  150  151 2   
   156  150  163 1   
   157  152  153 1   
   158  152  159 1   
   159  152  160 1   
   160  153  154 1   
   161  153  161 1   
   162  153  162 1   
   163  154  155 1   
   164  154  156 1   
   165  163  164 1   
   166  163  168 1   
   167  164  165 1   
   168  164  166 1   
   169  164  167 1   
   170  170  171 1   
   171  170  172 1   
   172  173  174 1   
   173  173  175 1   
   174  176  177 1   
   175  176  178 1   
@<TRIPOS>SUBSTRUCTURE
     1 MOL         1 TEMP              0 ****  ****    0 ROOT
