@<TRIPOS>MOLECULE
MOL
  198   191     1     0     0
SMALL
resp


@<TRIPOS>ATOM
      1 C1          5.7200    1.5770    6.2310 c3        1 MOL     -0.365256
      2 C2          5.2310    1.3500    4.7250 c         1 MOL      0.695558
      3 O1          4.9950    2.2900    3.9460 o         1 MOL     -0.571531
      4 H1          5.2150    2.4480    6.6490 hc        1 MOL      0.093790
      5 H2          5.4800    0.6980    6.8280 hc        1 MOL      0.093790
      6 H3          6.7970    1.7420    6.2430 hc        1 MOL      0.093790
      7 N1          5.1570    0.0770    4.3190 n         1 MOL     -0.465427
      8 C3          5.0070   -0.3690    2.9380 c3        1 MOL      0.186406
      9 C4          3.5530   -0.3650    2.4720 c         1 MOL      0.252103
     10 O2          3.2500   -1.0200    1.4670 o         1 MOL     -0.499027
     11 C5          5.6790   -1.7010    2.5890 c3        1 MOL     -0.206691
     12 C6          7.1860   -1.8340    3.0380 c         1 MOL      0.669797
     13 O3          7.4440   -2.0490    4.2310 o         1 MOL     -0.682356
     14 O4          8.1240   -2.0090    2.1920 o         1 MOL     -0.682356
     15 H4          5.2520   -0.6090    5.0550 hn        1 MOL      0.243764
     16 H5          5.4240    0.4240    2.3220 h1        1 MOL      0.094694
     17 H6          5.7470   -1.7780    1.5070 hc        1 MOL      0.064446
     18 H7          5.2160   -2.6450    2.8920 hc        1 MOL      0.064446
     19 N2          2.5590    0.3730    3.1320 n         1 MOL     -0.276349
     20 C7          1.0770    0.2460    2.8300 c3        1 MOL      0.146840
     21 C8          0.2750    1.5140    2.5520 c         1 MOL      0.319498
     22 O5          0.4640    2.4520    3.3160 o         1 MOL     -0.502655
     23 C9          0.6070   -0.6350    4.0200 c3        1 MOL     -0.243003
     24 C10         1.1620   -2.0890    4.0660 c3        1 MOL     -0.027343
     25 C11         0.5860   -2.9990    5.1480 c3        1 MOL     -0.117601
     26 C12        -0.7630   -2.5880    5.7140 c3        1 MOL      0.306144
     27 N3         -1.1620   -3.5920    6.7250 n4        1 MOL     -0.553416
     28 H8          2.8650    0.6680    4.0510 hn        1 MOL      0.169170
     29 H9          1.0930   -0.3970    1.9490 h1        1 MOL      0.256623
     30 H10        -0.4750   -0.6750    3.9810 hc        1 MOL      0.079956
     31 H11         0.8010   -0.1950    4.9960 hc        1 MOL      0.079956
     32 H12         2.2390   -2.1390    4.2420 hc        1 MOL      0.061631
     33 H13         1.0060   -2.4720    3.0630 hc        1 MOL      0.061631
     34 H14         1.2950   -2.9520    5.9810 hc        1 MOL      0.033206
     35 H15         0.5440   -4.0630    4.9430 hc        1 MOL      0.033206
     36 H16        -1.4900   -2.4070    4.9260 hx        1 MOL      0.010354
     37 H17        -0.6240   -1.6140    6.1830 hx        1 MOL      0.010354
     38 H18        -1.7520   -3.1560    7.4160 hn        1 MOL      0.372100
     39 H19        -1.6530   -4.3000    6.1890 hn        1 MOL      0.372100
     40 H20        -0.3760   -3.9610    7.2490 hn        1 MOL      0.372100
     41 N4         -0.5370    1.6540    1.5010 n         1 MOL      0.118708
     42 C13        -1.0440    0.6910    0.5510 c3        1 MOL     -0.931290
     43 C14        -1.4880   -0.7050    1.1120 c         1 MOL      0.444511
     44 O6         -0.8900   -1.7180    0.7820 o         1 MOL     -0.517684
     45 C15        -0.1110    0.6100   -0.6580 c3        1 MOL     -0.346833
     46 C16         0.0750    1.8730   -1.4720 c         1 MOL      1.020498
     47 O7         -0.5950    2.9540   -1.4210 o         1 MOL     -0.787760
     48 O8          0.8870    1.8040   -2.4290 o         1 MOL     -0.787760
     49 H21        -0.6960    2.6380    1.3810 hn        1 MOL      0.101165
     50 H22        -2.0120    1.0420    0.1760 h1        1 MOL      0.252498
     51 H23        -0.6910   -0.1000   -1.2480 hc        1 MOL      0.153958
     52 H24         0.8050    0.0440   -0.4900 hc        1 MOL      0.153958
     53 N5         -2.5220   -0.8070    1.9650 n         1 MOL     -0.059817
     54 C17        -3.4220    0.2580    2.4240 c3        1 MOL     -0.043583
     55 C18        -4.4080   -0.2410    3.4730 c         1 MOL      0.354580
     56 O9         -4.1880   -1.1950    4.2060 o         1 MOL     -0.533525
     57 H25        -2.6970   -1.6870    2.4410 hn        1 MOL      0.190283
     58 H26        -4.0810    0.4690    1.5740 h1        1 MOL      0.093237
     59 H27        -2.9420    1.1430    2.8560 h1        1 MOL      0.093237
     60 N6         -5.5560    0.4110    3.7490 n         1 MOL     -0.259991
     61 C19        -6.1750    1.5000    2.9050 c3        1 MOL     -0.117407
     62 C20        -6.9290    0.9020    1.6850 c         1 MOL      0.673153
     63 O10        -6.9860   -0.2900    1.5140 o         1 MOL     -0.533324
     64 C21        -7.1330    2.3090    3.7780 c3        1 MOL     -0.135234
     65 C22        -8.1310    1.4400    4.4940 c         1 MOL      0.709387
     66 O11        -7.7940    0.5270    5.3130 o         1 MOL     -0.686294
     67 O12        -9.3290    1.6460    4.2480 o         1 MOL     -0.686294
     68 H28        -6.0400    0.1190    4.5720 hn        1 MOL      0.244917
     69 H29        -5.4020    2.1190    2.4520 h1        1 MOL      0.019184
     70 H30        -7.7110    2.9580    3.1210 hc        1 MOL      0.016337
     71 H31        -6.6890    2.9750    4.5210 hc        1 MOL      0.016337
     72 N7         -7.3610    1.6850    0.7500 n         1 MOL     -0.358408
     73 C23        -8.1150    1.1900   -0.4360 c3        1 MOL     -0.407985
     74 C24        -7.3680    0.7210   -1.7030 c         1 MOL      0.563708
     75 O13        -7.9480    0.0850   -2.5270 o         1 MOL     -0.526253
     76 H32        -7.2720    2.6860    0.8150 hn        1 MOL      0.272138
     77 H33        -8.8010    2.0240   -0.5920 h1        1 MOL      0.200087
     78 H34        -8.6860    0.3490   -0.0610 h1        1 MOL      0.200087
     79 N8         -6.0330    0.8960   -1.8020 n         1 MOL     -0.343092
     80 C25        -5.1020    0.1810   -2.7370 c3        1 MOL      0.120658
     81 C26        -4.2590   -0.7960   -1.9800 c         1 MOL      0.539199
     82 O14        -3.1180   -0.4360   -1.5640 o         1 MOL     -0.360023
     83 C27        -4.2490    1.1180   -3.6940 c3        1 MOL      0.394005
     84 C28        -5.0890    2.0280   -4.5720 c3        1 MOL     -0.495226
     85 O15        -3.4960    0.3710   -4.5500 oh        1 MOL     -0.604921
     86 H35        -5.5440    1.4800   -1.1290 hn        1 MOL      0.152019
     87 H36        -5.7090   -0.4970   -3.3240 h1        1 MOL      0.053553
     88 H37        -3.4870    1.5410   -3.0470 h1        1 MOL     -0.127787
     89 H38        -2.6800    0.8720   -4.5850 ho        1 MOL      0.441235
     90 H39        -5.8580    1.3910   -4.9990 hc        1 MOL      0.129559
     91 H40        -5.6990    2.6110   -3.8790 hc        1 MOL      0.129559
     92 H41        -4.5220    2.4880   -5.3850 hc        1 MOL      0.129559
     93 N9         -4.7920   -2.0220   -1.7040 n         1 MOL     -0.606760
     94 C29        -4.3250   -3.1290   -0.8330 c3        1 MOL     -0.248141
     95 C30        -3.0070   -3.7420   -1.3920 c         1 MOL      0.461839
     96 O16        -2.5210   -4.7660   -0.8950 o         1 MOL     -0.545748
     97 C31        -5.5150   -4.1520   -0.7050 c3        1 MOL      0.246408
     98 C32        -6.0760   -4.5650   -2.0790 c3        1 MOL      0.075769
     99 C33        -6.5650   -3.5590    0.2240 c3        1 MOL     -0.256061
    100 C34        -7.2800   -5.5500   -2.0020 c3        1 MOL     -0.220664
    101 H42        -5.7000   -2.1760   -2.0990 hn        1 MOL      0.368254
    102 H43        -4.0650   -2.7620    0.1570 h1        1 MOL      0.168023
    103 H44        -5.1130   -5.0770   -0.2920 hc        1 MOL      0.002990
    104 H45        -5.3200   -5.0350   -2.7100 hc        1 MOL      0.007812
    105 H46        -6.4300   -3.6880   -2.6040 hc        1 MOL      0.007812
    106 H47        -6.0940   -3.1710    1.1290 hc        1 MOL      0.077035
    107 H48        -7.1480   -2.8100   -0.3120 hc        1 MOL      0.077035
    108 H49        -7.1660   -4.3720    0.6350 hc        1 MOL      0.077035
    109 H50        -6.9710   -6.4060   -1.3890 hc        1 MOL      0.051158
    110 H51        -8.1670   -5.0500   -1.6170 hc        1 MOL      0.051158
    111 H52        -7.5290   -5.9700   -2.9710 hc        1 MOL      0.051158
    112 N10        -2.3860   -3.1190   -2.4350 n         1 MOL     -0.051068
    113 C35        -1.3250   -3.6890   -3.2780 c3        1 MOL     -0.170627
    114 C36         0.0770   -3.7270   -2.6880 c         1 MOL      0.422872
    115 O17         0.9580   -4.3890   -3.2020 o         1 MOL     -0.528722
    116 C37        -1.3350   -3.0210   -4.6440 c3        1 MOL      0.189023
    117 C38        -1.0140   -1.4690   -4.5340 c3        1 MOL     -0.163171
    118 O18        -2.6310   -3.1290   -5.2510 oh        1 MOL     -0.643814
    119 H53        -2.7410   -2.2060   -2.6600 hn        1 MOL      0.140065
    120 H54        -1.5910   -4.7460   -3.2790 h1        1 MOL      0.146140
    121 H55        -0.6000   -3.5270   -5.2720 h1        1 MOL      0.055807
    122 H56        -2.4790   -3.0250   -6.1920 ho        1 MOL      0.417473
    123 H57        -1.5540   -1.1210   -3.6520 hc        1 MOL      0.050611
    124 H58         0.0500   -1.2870   -4.4010 hc        1 MOL      0.050611
    125 H59        -1.4360   -0.8680   -5.3410 hc        1 MOL      0.050611
    126 N11         0.3750   -3.0530   -1.5350 n         1 MOL     -0.117184
    127 C39         1.7710   -2.9200   -1.0110 c3        1 MOL      0.011285
    128 C40         2.7190   -2.1440   -1.9710 c         1 MOL      0.340272
    129 O19         2.3530   -1.8010   -3.0770 o         1 MOL     -0.462942
    130 C41         2.3660   -4.2760   -0.4930 c3        1 MOL      0.270880
    131 C42         1.3480   -5.1040    0.2920 c3        1 MOL     -0.163820
    132 O20         3.5650   -4.1070    0.2150 oh        1 MOL     -0.655347
    133 H60        -0.4360   -2.6310   -1.0870 hn        1 MOL      0.121589
    134 H61         1.6370   -2.3200   -0.1150 h1        1 MOL      0.132639
    135 H62         2.5970   -4.9310   -1.3350 h1        1 MOL      0.003972
    136 H63         3.8380   -4.9990    0.4590 ho        1 MOL      0.399682
    137 H64         0.5100   -5.3850   -0.3590 hc        1 MOL      0.032690
    138 H65         1.8670   -5.9960    0.6380 hc        1 MOL      0.032690
    139 H66         1.0580   -4.5860    1.2120 hc        1 MOL      0.032690
    140 N12         3.9460   -1.8270   -1.6210 n         1 MOL     -0.111354
    141 C43         4.9760   -1.0710   -2.4230 c3        1 MOL     -0.185683
    142 C44         4.8500    0.4870   -2.2900 c         1 MOL      0.720578
    143 O21         5.3150    1.2250   -3.1710 o         1 MOL     -0.638369
    144 C45         6.3980   -1.6360   -2.2040 c3        1 MOL      0.059523
    145 C46         6.4080   -3.1620   -1.9810 c3        1 MOL     -0.013407
    146 C47         7.6870   -3.8230   -2.4050 c3        1 MOL      0.009679
    147 C48         7.6160   -5.3210   -2.0090 c3        1 MOL      0.024587
    148 N13         8.7960   -5.9760   -2.6380 n4        1 MOL     -0.267545
    149 H67         4.3070   -2.0990   -0.7170 hn        1 MOL      0.176430
    150 H68         4.7250   -1.2990   -3.4540 h1        1 MOL      0.082016
    151 H69         6.8940   -1.2410   -1.3260 hc        1 MOL      0.019608
    152 H70         7.0640   -1.3950   -3.0350 hc        1 MOL      0.019608
    153 H71         5.5340   -3.5840   -2.4790 hc        1 MOL      0.009421
    154 H72         6.2150   -3.3590   -0.9250 hc        1 MOL      0.009421
    155 H73         8.4770   -3.2750   -1.8990 hc        1 MOL      0.022472
    156 H74         7.8260   -3.8060   -3.4910 hc        1 MOL      0.022472
    157 H75         6.6760   -5.7650   -2.3470 hx        1 MOL      0.090452
    158 H76         7.6330   -5.4330   -0.9250 hx        1 MOL      0.090452
    159 H77         8.9060   -5.6920   -3.6070 hn        1 MOL      0.278232
    160 H78         9.6620   -5.6730   -2.2160 hn        1 MOL      0.278232
    161 H79         8.8040   -6.9810   -2.7210 hn        1 MOL      0.278232
    162 N14         4.2820    0.9640   -1.1700 n         1 MOL     -0.382343
    163 C49         4.2900    2.3890   -0.9350 c3        1 MOL     -0.152578
    164 C50         5.6780    3.0600   -0.8700 c         1 MOL      0.416661
    165 O22         6.5070    2.7390   -0.0120 o         1 MOL     -0.529707
    166 C51         3.3950    2.5490    0.3630 c3        1 MOL      0.580928
    167 C52         3.2040    3.9470    0.9560 c3        1 MOL     -0.321106
    168 C53         2.8130    4.9150   -0.0660 c         1 MOL      0.749115
    169 O23         3.6170    5.5470   -0.7340 o         1 MOL     -0.811008
    170 O24         1.5970    4.8710   -0.3630 o         1 MOL     -0.811008
    171 H80         3.7630    0.3680   -0.5420 hn        1 MOL      0.222756
    172 H81         3.6500    2.7530   -1.7370 h1        1 MOL      0.114142
    173 H82         3.8540    1.9270    1.1240 hc        1 MOL     -0.148161
    174 H83         2.4590    2.0240    0.1740 hc        1 MOL     -0.148161
    175 H84         4.1580    4.1970    1.4270 hc        1 MOL      0.086320
    176 H85         2.5000    3.8570    1.7810 hc        1 MOL      0.086320
    177 N15         5.9720    4.0100   -1.7240 n         1 MOL     -0.050627
    178 C54         7.3070    4.6640   -1.7290 c3        1 MOL     -0.257121
    179 H86         7.2120    5.6830   -1.3540 h1        1 MOL      0.100431
    180 H87         7.9880    4.1050   -1.0890 h1        1 MOL      0.100431
    181 H88         7.6980    4.6870   -2.7460 h1        1 MOL      0.100431
    182 H89         5.2020    4.3590   -2.2700 hn        1 MOL      0.191561
    183 Ca1        -0.5820    5.4480   -1.3610 Ca        1 MOL      1.795325
    184 O25        -1.2550    7.5700   -2.5580 oh        1 MOL     -0.871174
    185 H90        -2.1290    7.7790   -2.8980 ho        1 MOL      0.428193
    186 H91        -0.8460    8.4320   -2.4330 ho        1 MOL      0.428193
    187 O26        -2.3840    4.5340   -3.0560 oh        1 MOL     -0.871174
    188 H92        -2.2840    3.6650   -3.4470 ho        1 MOL      0.428193
    189 H93        -3.3320    4.6660   -3.0220 ho        1 MOL      0.428193
    190 O27         1.1780    4.3040   -3.0910 oh        1 MOL     -0.871174
    191 H94         1.1120    3.3740   -2.9140 ho        1 MOL      0.428193
    192 H95         2.0200    4.4080   -3.5370 ho        1 MOL      0.428193
    193 O28         1.9440    6.9480   -2.4260 oh        1 MOL     -0.871174
    194 H96         2.5160    6.4220   -1.8640 ho        1 MOL      0.428193
    195 H97         2.3980    7.7910   -2.4890 ho        1 MOL      0.428193
    196 O29         0.2040    7.6360    0.1630 oh        1 MOL     -0.871174
    197 H98         0.4930    8.4810   -0.1840 ho        1 MOL      0.428193
    198 H99         0.9780    7.2620    0.5840 ho        1 MOL      0.428193
@<TRIPOS>BOND
     1    1    2 1   
     2    1    4 1   
     3    1    5 1   
     4    1    6 1   
     5    2    3 2   
     6    2    7 1   
     7    7    8 1   
     8    7   15 1   
     9    8    9 1   
    10    8   11 1   
    11    8   16 1   
    12    9   10 2   
    13    9   19 1   
    14   11   12 1   
    15   11   17 1   
    16   11   18 1   
    17   12   13 1   
    18   12   14 1   
    19   19   20 1   
    20   19   28 1   
    21   20   21 1   
    22   20   23 1   
    23   20   29 1   
    24   21   22 2   
    25   21   41 1   
    26   23   24 1   
    27   23   30 1   
    28   23   31 1   
    29   24   25 1   
    30   24   32 1   
    31   24   33 1   
    32   25   26 1   
    33   25   34 1   
    34   25   35 1   
    35   26   27 1   
    36   26   36 1   
    37   26   37 1   
    38   27   38 1   
    39   27   39 1   
    40   27   40 1   
    41   41   42 1   
    42   41   49 1   
    43   42   43 1   
    44   42   45 1   
    45   42   50 1   
    46   43   44 2   
    47   43   53 1   
    48   45   46 1   
    49   45   51 1   
    50   45   52 1   
    51   46   47 1   
    52   46   48 1   
    53   53   54 1   
    54   53   57 1   
    55   54   55 1   
    56   54   58 1   
    57   54   59 1   
    58   55   56 2   
    59   55   60 1   
    60   60   61 1   
    61   60   68 1   
    62   61   62 1   
    63   61   64 1   
    64   61   69 1   
    65   62   63 2   
    66   62   72 1   
    67   64   65 1   
    68   64   70 1   
    69   64   71 1   
    70   65   66 1   
    71   65   67 1   
    72   72   73 1   
    73   72   76 1   
    74   73   74 1   
    75   73   77 1   
    76   73   78 1   
    77   74   75 2   
    78   74   79 1   
    79   79   80 1   
    80   79   86 1   
    81   80   81 1   
    82   80   83 1   
    83   80   87 1   
    84   81   82 2   
    85   81   93 1   
    86   83   84 1   
    87   83   85 1   
    88   83   88 1   
    89   84   90 1   
    90   84   91 1   
    91   84   92 1   
    92   85   89 1   
    93   93   94 1   
    94   93  101 1   
    95   94   95 1   
    96   94   97 1   
    97   94  102 1   
    98   95   96 2   
    99   95  112 1   
   100   97   98 1   
   101   97   99 1   
   102   97  103 1   
   103   98  100 1   
   104   98  104 1   
   105   98  105 1   
   106   99  106 1   
   107   99  107 1   
   108   99  108 1   
   109  100  109 1   
   110  100  110 1   
   111  100  111 1   
   112  112  113 1   
   113  112  119 1   
   114  113  114 1   
   115  113  116 1   
   116  113  120 1   
   117  114  115 2   
   118  114  126 1   
   119  116  117 1   
   120  116  118 1   
   121  116  121 1   
   122  117  123 1   
   123  117  124 1   
   124  117  125 1   
   125  118  122 1   
   126  126  127 1   
   127  126  133 1   
   128  127  128 1   
   129  127  130 1   
   130  127  134 1   
   131  128  129 2   
   132  128  140 1   
   133  130  131 1   
   134  130  132 1   
   135  130  135 1   
   136  131  137 1   
   137  131  138 1   
   138  131  139 1   
   139  132  136 1   
   140  140  141 1   
   141  140  149 1   
   142  141  142 1   
   143  141  144 1   
   144  141  150 1   
   145  142  143 2   
   146  142  162 1   
   147  144  145 1   
   148  144  151 1   
   149  144  152 1   
   150  145  146 1   
   151  145  153 1   
   152  145  154 1   
   153  146  147 1   
   154  146  155 1   
   155  146  156 1   
   156  147  148 1   
   157  147  157 1   
   158  147  158 1   
   159  148  159 1   
   160  148  160 1   
   161  148  161 1   
   162  162  163 1   
   163  162  171 1   
   164  163  164 1   
   165  163  166 1   
   166  163  172 1   
   167  164  165 2   
   168  164  177 1   
   169  166  167 1   
   170  166  173 1   
   171  166  174 1   
   172  167  168 1   
   173  167  175 1   
   174  167  176 1   
   175  168  169 1   
   176  168  170 1   
   177  177  178 1   
   178  177  182 1   
   179  178  179 1   
   180  178  180 1   
   181  178  181 1   
   182  184  185 1   
   183  184  186 1   
   184  187  188 1   
   185  187  189 1   
   186  190  191 1   
   187  190  192 1   
   188  193  194 1   
   189  193  195 1   
   190  196  197 1   
   191  196  198 1   
@<TRIPOS>SUBSTRUCTURE
     1 MOL         1 TEMP              0 ****  ****    0 ROOT
