@<TRIPOS>MOLECULE
MOL
  185   180     1     0     0
SMALL
resp


@<TRIPOS>ATOM
      1 C1          3.6560    3.4220    1.7220 c3        1 MOL     -0.436927
      2 C2          4.6690    2.8660    0.7530 c         1 MOL      0.693581
      3 O1          4.6320    1.7810    0.2100 o         1 MOL     -0.513434
      4 H1          4.0900    4.2690    2.2540 hc        1 MOL      0.114838
      5 H2          2.7720    3.7510    1.1750 hc        1 MOL      0.114838
      6 H3          3.3750    2.6500    2.4370 hc        1 MOL      0.114838
      7 N1          5.7650    3.6280    0.5610 n         1 MOL     -0.630707
      8 C3          6.9200    3.3270   -0.2320 c3        1 MOL     -0.000517
      9 C4          7.6930    2.0600    0.3630 c         1 MOL      0.499725
     10 O2          8.4610    1.3860   -0.3070 o         1 MOL     -0.474842
     11 C5          6.6300    3.1570   -1.6680 c3        1 MOL     -0.219685
     12 C6          5.6800    4.1640   -2.2920 c         1 MOL      0.742884
     13 O3          4.7180    3.7950   -3.0880 o         1 MOL     -0.659585
     14 O4          5.9030    5.4040   -2.1830 o         1 MOL     -0.659585
     15 H4          5.6500    4.5960    0.8360 hn        1 MOL      0.337180
     16 H5          7.5700    4.1930   -0.1600 h1        1 MOL      0.096178
     17 H6          6.0350    2.2410   -1.7440 hc        1 MOL      0.084597
     18 H7          7.5360    3.1850   -2.2710 hc        1 MOL      0.084597
     19 N2          7.4690    1.8030    1.6760 n         1 MOL     -0.514373
     20 C7          7.9070    0.5260    2.3420 c3        1 MOL      0.022183
     21 C8          7.2770   -0.8180    1.8240 c         1 MOL      0.472231
     22 O5          7.5090   -1.8420    2.4330 o         1 MOL     -0.527689
     23 C9          7.5310    0.7430    3.8100 c3        1 MOL     -0.091833
     24 C10         8.4300    1.8160    4.4780 c3        1 MOL     -0.033169
     25 C11         8.2050    1.8580    6.0180 c3        1 MOL      0.058984
     26 C12         9.0090    2.9760    6.5900 c3        1 MOL      0.003984
     27 N3         10.3320    2.5120    7.0980 n4        1 MOL     -0.280856
     28 H8          6.9220    2.4890    2.1690 hn        1 MOL      0.295322
     29 H9          8.9720    0.3880    2.1430 h1        1 MOL      0.098273
     30 H10         7.6800   -0.2160    4.3220 hc        1 MOL      0.058985
     31 H11         6.4810    1.0180    3.8880 hc        1 MOL      0.058985
     32 H12         8.2140    2.8390    4.1820 hc        1 MOL      0.022194
     33 H13         9.4440    1.5800    4.1450 hc        1 MOL      0.022194
     34 H14         8.5870    0.8770    6.3310 hc        1 MOL      0.026738
     35 H15         7.1880    1.8700    6.3960 hc        1 MOL      0.026738
     36 H16         8.3870    3.4740    7.3450 hx        1 MOL      0.073079
     37 H17         9.2620    3.7740    5.8860 hx        1 MOL      0.073079
     38 H18        10.8430    3.3150    7.4610 hn        1 MOL      0.252070
     39 H19        10.2400    1.9570    7.9230 hn        1 MOL      0.252070
     40 H20        10.8170    2.0610    6.3370 hn        1 MOL      0.252070
     41 N4          6.4320   -0.6580    0.7610 n         1 MOL     -0.230993
     42 C13         5.6150   -1.6960    0.1900 c3        1 MOL      0.145829
     43 C14         5.8150   -1.8510   -1.3140 c         1 MOL      0.395319
     44 O6          6.0720   -0.8120   -1.9920 o         1 MOL     -0.458572
     45 C15         4.1500   -1.4550    0.4960 c3        1 MOL     -0.229924
     46 C16         3.1720   -2.5070    0.0650 c         1 MOL      0.559661
     47 O7          2.7410   -2.5640   -1.0910 o         1 MOL     -0.635948
     48 O8          2.7630   -3.3910    0.8600 o         1 MOL     -0.635948
     49 H21         6.3080    0.2900    0.4500 hn        1 MOL      0.176345
     50 H22         5.9740   -2.6290    0.6120 h1        1 MOL     -0.011014
     51 H23         3.9250   -0.5150   -0.0090 hc        1 MOL      0.084254
     52 H24         3.9970   -1.2780    1.5620 hc        1 MOL      0.084254
     53 N5          5.6700   -3.0930   -1.7360 n         1 MOL     -0.285799
     54 C17         5.7560   -3.4350   -3.1170 c3        1 MOL     -0.266941
     55 C18         4.7620   -2.8110   -4.1220 c         1 MOL      0.599630
     56 O9          4.9060   -2.9690   -5.3510 o         1 MOL     -0.602260
     57 H25         5.5480   -3.8180   -1.0430 hn        1 MOL      0.297825
     58 H26         5.6840   -4.5180   -3.2690 h1        1 MOL      0.120547
     59 H27         6.7900   -3.2330   -3.4040 h1        1 MOL      0.120547
     60 N6          3.6680   -2.1890   -3.7470 n         1 MOL     -0.254477
     61 C19         2.7850   -1.4990   -4.6190 c3        1 MOL     -0.141069
     62 C20         2.2560   -0.1860   -3.9820 c         1 MOL      0.485716
     63 O10         1.8060    0.6520   -4.7760 o         1 MOL     -0.516598
     64 C21         1.7300   -2.4430   -5.1570 c3        1 MOL      0.005300
     65 C22         0.6720   -2.7700   -4.1330 c         1 MOL      0.531028
     66 N7         -0.5000   -2.1540   -4.3320 n         1 MOL     -0.714577
     67 O11         0.7580   -3.7090   -3.2860 o         1 MOL     -0.612854
     68 H28         3.4570   -2.3220   -2.7640 hn        1 MOL      0.175031
     69 H29         3.3600   -1.1320   -5.4770 h1        1 MOL      0.158983
     70 H30         2.1640   -3.2890   -5.6850 hc        1 MOL      0.036018
     71 H31         1.1760   -1.9100   -5.9230 hc        1 MOL      0.036018
     72 H32        -0.5750   -1.5430   -5.1360 hn        1 MOL      0.374757
     73 H33        -1.2150   -2.2270   -3.6240 hn        1 MOL      0.374757
     74 N8          2.3850   -0.0090   -2.6420 n         1 MOL     -0.300589
     75 C23         2.1560    1.3100   -2.1430 c3        1 MOL     -0.130727
     76 C24         0.6640    1.6120   -1.9820 c         1 MOL      0.615351
     77 O12        -0.1810    0.7650   -2.1460 o         1 MOL     -0.547914
     78 H34         2.7780   -0.7010   -2.0210 hn        1 MOL      0.292160
     79 H35         2.5440    1.9940   -2.9010 h1        1 MOL      0.126424
     80 H36         2.6200    1.4540   -1.1590 h1        1 MOL      0.126424
     81 N9          0.3700    2.8750   -1.6670 n         1 MOL     -0.589832
     82 C25        -1.0000    3.4330   -1.4150 c3        1 MOL      0.208328
     83 C26        -1.7700    2.7890   -0.2810 c         1 MOL      0.597141
     84 O13        -1.1550    2.2760    0.6400 o         1 MOL     -0.548190
     85 C27        -0.8620    4.9500   -1.1140 c3        1 MOL     -0.108687
     86 C28        -2.1250    5.7970   -1.0200 ca        1 MOL     -0.046603
     87 C29        -3.0480    5.7860   -2.0650 ca        1 MOL     -0.063212
     88 C30        -2.4850    6.4390    0.1870 ca        1 MOL     -0.063212
     89 C31        -4.3180    6.3330   -1.8580 ca        1 MOL     -0.341357
     90 C32        -3.7940    7.0290    0.3740 ca        1 MOL     -0.341357
     91 C33        -4.7490    6.9500   -0.6890 ca        1 MOL      0.434720
     92 O14        -6.0650    7.3040   -0.5520 oh        1 MOL     -0.564267
     93 H37         1.1080    3.5570   -1.6260 hn        1 MOL      0.296008
     94 H38        -1.6070    3.3390   -2.3160 h1        1 MOL      0.032234
     95 H39        -0.1680    5.4350   -1.8080 hc        1 MOL      0.066502
     96 H40        -0.3630    4.9900   -0.1380 hc        1 MOL      0.066502
     97 H41        -2.7720    5.4280   -3.0490 ha        1 MOL      0.126051
     98 H42        -1.7310    6.4350    0.9570 ha        1 MOL      0.126051
     99 H43        -4.9440    6.4380   -2.7290 ha        1 MOL      0.158994
    100 H44        -4.1080    7.3930    1.3430 ha        1 MOL      0.158994
    101 H45        -6.3440    7.6040    0.3120 ho        1 MOL      0.414334
    102 N10        -3.1090    2.7080   -0.3840 n         1 MOL     -0.557714
    103 C34        -4.0220    2.0140    0.5740 c3        1 MOL      0.277516
    104 C35        -5.0510    1.2510   -0.2540 c         1 MOL      0.259371
    105 O15        -5.1960    0.0130   -0.1260 o         1 MOL     -0.384861
    106 C36        -4.7880    2.9950    1.5580 c3        1 MOL      0.004865
    107 C37        -3.6880    3.6730    2.3940 c3        1 MOL      0.048494
    108 C38        -5.7740    2.1810    2.4090 c3        1 MOL     -0.438455
    109 C39        -4.1120    4.9220    3.1220 c3        1 MOL     -0.255897
    110 H46        -3.6210    3.2850   -1.0460 hn        1 MOL      0.219782
    111 H47        -3.4970    1.2830    1.2000 h1        1 MOL      0.053430
    112 H48        -5.3050    3.7580    0.9840 hc        1 MOL      0.002239
    113 H49        -2.8650    3.9990    1.7470 hc        1 MOL      0.053693
    114 H50        -3.3140    2.9510    3.1120 hc        1 MOL      0.053693
    115 H51        -5.4320    1.1860    2.6820 hc        1 MOL      0.123130
    116 H52        -5.9930    2.7220    3.3300 hc        1 MOL      0.123130
    117 H53        -6.6670    2.0650    1.7970 hc        1 MOL      0.123130
    118 H54        -3.2980    5.6520    3.1660 hc        1 MOL      0.047486
    119 H55        -4.8890    5.4300    2.5390 hc        1 MOL      0.047486
    120 H56        -4.4030    4.6870    4.1490 hc        1 MOL      0.047486
    121 N11        -5.7400    1.9550   -1.1620 n         1 MOL     -0.241033
    122 C40        -6.5980    1.3200   -2.1710 c3        1 MOL      0.115247
    123 C41        -7.7720    0.4710   -1.5590 c         1 MOL      0.262302
    124 O16        -8.0070   -0.6870   -1.9270 o         1 MOL     -0.448726
    125 C42        -7.3110    2.4790   -2.9260 c3        1 MOL      0.238823
    126 O17        -6.4390    3.5140   -3.3490 oh        1 MOL     -0.587583
    127 H57        -5.5620    2.9450   -1.2560 hn        1 MOL      0.211430
    128 H58        -5.9970    0.7620   -2.8940 h1        1 MOL      0.094961
    129 H59        -8.0680    2.8240   -2.2140 h1        1 MOL     -0.013342
    130 H60        -7.7660    2.0080   -3.8000 h1        1 MOL     -0.013342
    131 H61        -6.9810    4.2950   -3.4970 ho        1 MOL      0.400001
    132 N12        -8.3850    0.9600   -0.4420 n         1 MOL     -0.439341
    133 C43        -9.2300    0.1220    0.4490 c3        1 MOL      0.599885
    134 C44        -8.6780   -1.2650    0.9320 c         1 MOL      0.334722
    135 O18        -9.5260   -2.1060    0.9580 o         1 MOL     -0.512238
    136 C45       -10.6610    0.1430   -0.0570 c3        1 MOL     -0.681943
    137 H62        -8.1950    1.9070   -0.1600 hn        1 MOL      0.260662
    138 H63        -9.2710    0.6980    1.3750 h1        1 MOL     -0.064215
    139 H64       -11.2920   -0.4870    0.5830 hc        1 MOL      0.170973
    140 H65       -10.9380    1.1930    0.0660 hc        1 MOL      0.170973
    141 H66       -10.6980   -0.2350   -1.0850 hc        1 MOL      0.170973
    142 N13        -7.3940   -1.5110    1.0270 n         1 MOL     -0.496256
    143 C46        -6.7940   -2.8770    1.1710 c3        1 MOL      0.600177
    144 C47        -5.5620   -2.8800    2.0730 c         1 MOL      0.066312
    145 O19        -4.7990   -1.8540    2.1780 o         1 MOL     -0.399883
    146 C48        -6.5200   -3.4180   -0.1930 c3        1 MOL     -0.048116
    147 H67        -6.7000   -0.7890    0.8920 hn        1 MOL      0.176389
    148 H68        -7.5440   -3.5300    1.6170 h1        1 MOL     -0.080547
    149 H69        -7.4250   -3.7300   -0.7260 hc        1 MOL      0.018296
    150 H70        -5.8900   -2.8010   -0.8280 hc        1 MOL      0.018296
    151 H71        -6.0350   -4.3870   -0.0590 hc        1 MOL      0.018296
    152 N14        -5.2830   -4.0430    2.6520 n         1 MOL     -0.164964
    153 C49        -4.2880   -4.2930    3.7150 c3        1 MOL     -0.289792
    154 C50        -4.4670   -3.3810    4.8770 c         1 MOL      0.436564
    155 O20        -3.4950   -3.0970    5.6640 o         1 MOL     -0.501093
    156 C51        -2.8970   -4.1970    3.1210 c3        1 MOL      0.346083
    157 C52        -2.5460   -5.1410    1.9730 c3        1 MOL     -0.041275
    158 C53        -1.3960   -4.6310    1.0900 c         1 MOL      0.739916
    159 O21        -1.5320   -4.5250   -0.1720 o         1 MOL     -0.795978
    160 O22        -0.2840   -4.4520    1.5820 o         1 MOL     -0.795978
    161 H72        -5.9370   -4.8010    2.5100 hn        1 MOL      0.225391
    162 H73        -4.5320   -5.3020    4.0490 h1        1 MOL      0.107106
    163 H74        -2.1890   -4.4110    3.9190 hc        1 MOL     -0.005338
    164 H75        -2.6760   -3.1680    2.8410 hc        1 MOL     -0.005338
    165 H76        -3.4210   -5.4320    1.3780 hc        1 MOL     -0.050274
    166 H77        -2.2210   -6.0560    2.4740 hc        1 MOL     -0.050274
    167 N15        -5.7280   -2.9820    5.2380 n         1 MOL     -0.188739
    168 C54        -6.0400   -2.2090    6.3520 c3        1 MOL     -0.114657
    169 H78        -5.1470   -1.6840    6.6900 h1        1 MOL      0.066548
    170 H79        -6.8090   -1.4840    6.0880 h1        1 MOL      0.066548
    171 H80        -6.4070   -2.8540    7.1500 h1        1 MOL      0.066548
    172 H81        -6.5640   -3.3790    4.8270 hn        1 MOL      0.211882
    173 Ca1         0.9550   -4.4740   -0.7550 Ca        1 MOL      1.753924
    174 O23        -0.1930   -1.8680   -0.6200 oh        1 MOL     -0.824647
    175 H82         0.0310   -1.0080   -0.9720 ho        1 MOL      0.407159
    176 H83        -0.8820   -1.6950    0.0160 ho        1 MOL      0.407159
    177 O24         1.9940   -6.6640    0.6540 oh        1 MOL     -0.824647
    178 H84         2.5080   -7.4320    0.4080 ho        1 MOL      0.407159
    179 H85         1.2780   -7.0140    1.1800 ho        1 MOL      0.407159
    180 O25         3.2440   -5.7760   -2.2940 oh        1 MOL     -0.824647
    181 H86         3.3850   -6.1700   -3.1590 ho        1 MOL      0.407159
    182 H87         4.0180   -6.0230   -1.7940 ho        1 MOL      0.407159
    183 O26         0.4870   -6.8850   -1.9560 oh        1 MOL     -0.824647
    184 H88        -0.1800   -7.5750   -1.8770 ho        1 MOL      0.407159
    185 H89         1.1870   -7.2790   -2.4740 ho        1 MOL      0.407159
@<TRIPOS>BOND
     1    1    2 1   
     2    1    4 1   
     3    1    5 1   
     4    1    6 1   
     5    2    3 2   
     6    2    7 1   
     7    7    8 1   
     8    7   15 1   
     9    8    9 1   
    10    8   11 1   
    11    8   16 1   
    12    9   10 2   
    13    9   19 1   
    14   11   12 1   
    15   11   17 1   
    16   11   18 1   
    17   12   13 1   
    18   12   14 1   
    19   19   20 1   
    20   19   28 1   
    21   20   21 1   
    22   20   23 1   
    23   20   29 1   
    24   21   22 2   
    25   21   41 1   
    26   23   24 1   
    27   23   30 1   
    28   23   31 1   
    29   24   25 1   
    30   24   32 1   
    31   24   33 1   
    32   25   26 1   
    33   25   34 1   
    34   25   35 1   
    35   26   27 1   
    36   26   36 1   
    37   26   37 1   
    38   27   38 1   
    39   27   39 1   
    40   27   40 1   
    41   41   42 1   
    42   41   49 1   
    43   42   43 1   
    44   42   45 1   
    45   42   50 1   
    46   43   44 2   
    47   43   53 1   
    48   45   46 1   
    49   45   51 1   
    50   45   52 1   
    51   46   47 1   
    52   46   48 1   
    53   53   54 1   
    54   53   57 1   
    55   54   55 1   
    56   54   58 1   
    57   54   59 1   
    58   55   56 2   
    59   55   60 1   
    60   60   61 1   
    61   60   68 1   
    62   61   62 1   
    63   61   64 1   
    64   61   69 1   
    65   62   63 2   
    66   62   74 1   
    67   64   65 1   
    68   64   70 1   
    69   64   71 1   
    70   65   66 1   
    71   65   67 2   
    72   66   72 1   
    73   66   73 1   
    74   74   75 1   
    75   74   78 1   
    76   75   76 1   
    77   75   79 1   
    78   75   80 1   
    79   76   77 2   
    80   76   81 1   
    81   81   82 1   
    82   81   93 1   
    83   82   83 1   
    84   82   85 1   
    85   82   94 1   
    86   83   84 2   
    87   83  102 1   
    88   85   86 1   
    89   85   95 1   
    90   85   96 1   
    91   86   87 ar  
    92   86   88 ar  
    93   87   89 ar  
    94   87   97 1   
    95   88   90 ar  
    96   88   98 1   
    97   89   91 ar  
    98   89   99 1   
    99   90   91 ar  
   100   90  100 1   
   101   91   92 1   
   102   92  101 1   
   103  102  103 1   
   104  102  110 1   
   105  103  104 1   
   106  103  106 1   
   107  103  111 1   
   108  104  105 2   
   109  104  121 1   
   110  106  107 1   
   111  106  108 1   
   112  106  112 1   
   113  107  109 1   
   114  107  113 1   
   115  107  114 1   
   116  108  115 1   
   117  108  116 1   
   118  108  117 1   
   119  109  118 1   
   120  109  119 1   
   121  109  120 1   
   122  121  122 1   
   123  121  127 1   
   124  122  123 1   
   125  122  125 1   
   126  122  128 1   
   127  123  124 2   
   128  123  132 1   
   129  125  126 1   
   130  125  129 1   
   131  125  130 1   
   132  126  131 1   
   133  132  133 1   
   134  132  137 1   
   135  133  134 1   
   136  133  136 1   
   137  133  138 1   
   138  134  135 2   
   139  134  142 1   
   140  136  139 1   
   141  136  140 1   
   142  136  141 1   
   143  142  143 1   
   144  142  147 1   
   145  143  144 1   
   146  143  146 1   
   147  143  148 1   
   148  144  145 2   
   149  144  152 1   
   150  146  149 1   
   151  146  150 1   
   152  146  151 1   
   153  152  153 1   
   154  152  161 1   
   155  153  154 1   
   156  153  156 1   
   157  153  162 1   
   158  154  155 2   
   159  154  167 1   
   160  156  157 1   
   161  156  163 1   
   162  156  164 1   
   163  157  158 1   
   164  157  165 1   
   165  157  166 1   
   166  158  159 1   
   167  158  160 1   
   168  167  168 1   
   169  167  172 1   
   170  168  169 1   
   171  168  170 1   
   172  168  171 1   
   173  174  175 1   
   174  174  176 1   
   175  177  178 1   
   176  177  179 1   
   177  180  181 1   
   178  180  182 1   
   179  183  184 1   
   180  183  185 1   
@<TRIPOS>SUBSTRUCTURE
     1 MOL         1 TEMP              0 ****  ****    0 ROOT
