@<TRIPOS>MOLECULE
MOL
  192   187     1     0     0
SMALL
resp


@<TRIPOS>ATOM
      1 C1          5.0340   -6.2350    0.0290 c3        1 MOL     -0.193716
      2 C2          4.8360   -4.7000    0.2450 c         1 MOL      0.669097
      3 O1          4.5010   -4.2330    1.3900 o         1 MOL     -0.579356
      4 H1          5.3810   -6.6900    0.9580 hc        1 MOL      0.053861
      5 H2          4.0850   -6.6860   -0.2630 hc        1 MOL      0.053861
      6 H3          5.7730   -6.4000   -0.7540 hc        1 MOL      0.053861
      7 N1          5.0490   -3.8740   -0.7820 n         1 MOL     -0.483250
      8 C3          4.8590   -2.4340   -0.6920 c3        1 MOL      0.085152
      9 C4          3.3280   -2.0270   -0.5570 c         1 MOL      0.216936
     10 O2          2.9590   -0.8600   -0.1760 o         1 MOL     -0.399557
     11 C5          5.4110   -1.7000   -1.9910 c3        1 MOL     -0.019787
     12 C6          4.9860   -2.4300   -3.2820 c         1 MOL      0.647368
     13 O3          4.0970   -1.9480   -3.9840 o         1 MOL     -0.683762
     14 O4          5.7900   -3.3290   -3.5970 o         1 MOL     -0.683762
     15 H4          5.0910   -4.3400   -1.6780 hn        1 MOL      0.261319
     16 H5          5.3690   -2.0170    0.1780 h1        1 MOL      0.059486
     17 H6          6.5010   -1.7070   -2.0520 hc        1 MOL      0.018747
     18 H7          4.9930   -0.6890   -1.9750 hc        1 MOL      0.018747
     19 N2          2.5110   -2.9070   -1.0840 n         1 MOL     -0.086136
     20 C7          1.0750   -2.6870   -1.0920 c3        1 MOL     -0.226473
     21 C8          0.4030   -3.1550    0.2120 c         1 MOL      0.506870
     22 O5          0.5780   -4.3210    0.6630 o         1 MOL     -0.542174
     23 C9          0.5120   -3.4680   -2.3580 c3        1 MOL      0.005078
     24 C10         0.7330   -2.6420   -3.6340 c3        1 MOL     -0.106236
     25 C11         0.3760   -3.4370   -4.8930 c3        1 MOL      0.022669
     26 C12         1.4360   -4.4340   -5.3910 c3        1 MOL     -0.082602
     27 N3          2.6720   -3.6730   -5.6370 n4        1 MOL     -0.295590
     28 H8          2.8620   -3.7880   -1.4250 hn        1 MOL      0.199062
     29 H9          0.8540   -1.6520   -1.3540 h1        1 MOL      0.168834
     30 H10        -0.5270   -3.6420   -2.0790 hc        1 MOL      0.048069
     31 H11         0.9270   -4.4720   -2.4740 hc        1 MOL      0.048069
     32 H12         1.7830   -2.3340   -3.6460 hc        1 MOL      0.053432
     33 H13         0.0490   -1.8190   -3.7810 hc        1 MOL      0.053432
     34 H14         0.2070   -2.7450   -5.7140 hc        1 MOL      0.039847
     35 H15        -0.5810   -3.9440   -4.7740 hc        1 MOL      0.039847
     36 H16         1.1100   -4.9220   -6.3130 hx        1 MOL      0.094130
     37 H17         1.4210   -5.1660   -4.5850 hx        1 MOL      0.094130
     38 H18         2.5450   -2.9550   -6.3310 hn        1 MOL      0.294353
     39 H19         3.0090   -3.1940   -4.8060 hn        1 MOL      0.294353
     40 H20         3.4950   -4.1480   -5.9840 hn        1 MOL      0.294353
     41 N4         -0.4170   -2.3480    0.8930 n         1 MOL     -0.173841
     42 C13        -1.1230   -1.1490    0.5290 c3        1 MOL     -0.172931
     43 C14        -1.6440   -0.8880   -0.9280 c         1 MOL      0.225522
     44 O6         -1.0740   -0.0730   -1.6680 o         1 MOL     -0.393891
     45 C15        -0.3510    0.0780    1.0230 c3        1 MOL     -0.047819
     46 C16        -0.2530    0.1920    2.5220 c         1 MOL      0.416212
     47 O7         -0.6470   -0.6930    3.2780 o         1 MOL     -0.654912
     48 O8          0.3930    1.1210    2.9240 o         1 MOL     -0.654912
     49 H21        -0.6310   -2.6530    1.8310 hn        1 MOL      0.233287
     50 H22        -2.0710   -1.2250    1.0670 h1        1 MOL      0.054017
     51 H23        -0.9520    0.9060    0.6650 hc        1 MOL      0.083542
     52 H24         0.6550    0.1320    0.5970 hc        1 MOL      0.083542
     53 N5         -2.5460   -1.6910   -1.5070 n         1 MOL     -0.291368
     54 C17        -3.4180   -2.5900   -0.8030 c3        1 MOL      0.183574
     55 C18        -4.0600   -3.7250   -1.6660 c         1 MOL      0.506847
     56 O9         -3.5710   -4.0570   -2.7250 o         1 MOL     -0.563789
     57 H25        -2.7920   -1.5680   -2.4810 hn        1 MOL      0.284233
     58 H26        -4.3060   -2.0620   -0.4520 h1        1 MOL      0.006675
     59 H27        -2.9200   -3.1130    0.0030 h1        1 MOL      0.006675
     60 N6         -5.0840   -4.3080   -1.1070 n         1 MOL     -0.385431
     61 C19        -5.6470   -4.1840    0.1960 c3        1 MOL      0.014819
     62 C20        -6.5900   -3.0000    0.3800 c         1 MOL      0.472571
     63 O10        -7.2460   -2.4860   -0.5380 o         1 MOL     -0.436148
     64 C21        -6.3790   -5.4860    0.4930 c3        1 MOL     -0.206798
     65 C22        -7.3340   -5.9250   -0.6450 c         1 MOL      0.713670
     66 O11        -8.5960   -5.9230   -0.4540 o         1 MOL     -0.648084
     67 O12        -6.8440   -6.3390   -1.7080 o         1 MOL     -0.648084
     68 H28        -5.5730   -4.8530   -1.8030 hn        1 MOL      0.280496
     69 H29        -4.8000   -4.0010    0.8600 h1        1 MOL      0.011693
     70 H30        -6.9280   -5.4830    1.4390 hc        1 MOL      0.039164
     71 H31        -5.5780   -6.2330    0.5600 hc        1 MOL      0.039164
     72 N7         -6.7200   -2.6300    1.7080 n         1 MOL     -0.240601
     73 C23        -7.5850   -1.5520    2.2510 c3        1 MOL     -0.373686
     74 C24        -7.1190   -0.1800    1.8570 c         1 MOL      0.596517
     75 O13        -7.9510    0.7230    1.8250 o         1 MOL     -0.535561
     76 H32        -6.1940   -3.1300    2.4120 hn        1 MOL      0.226167
     77 H33        -7.5240   -1.6070    3.3350 h1        1 MOL      0.172048
     78 H34        -8.6020   -1.8030    1.9350 h1        1 MOL      0.172048
     79 N8         -5.7720    0.0250    1.6210 n         1 MOL     -0.415033
     80 C25        -5.2530    1.3730    1.2690 c3        1 MOL      0.027318
     81 C26        -5.0450    1.4820   -0.2200 c         1 MOL      0.621761
     82 O14        -4.8420    0.4430   -0.8780 o         1 MOL     -0.524708
     83 C27        -3.7640    1.5020    1.8010 c3        1 MOL      0.293342
     84 C28        -3.6300    1.2560    3.3330 c3        1 MOL     -0.335900
     85 O15        -3.3290    2.8020    1.5440 oh        1 MOL     -0.567077
     86 H35        -5.2140   -0.8050    1.7470 hn        1 MOL      0.189523
     87 H36        -5.7920    2.2460    1.6330 h1        1 MOL      0.075834
     88 H37        -3.1280    0.7760    1.2830 h1        1 MOL      0.129618
     89 H38        -2.5170    3.0000    2.0230 ho        1 MOL      0.413059
     90 H39        -2.6100    1.1040    3.6730 hc        1 MOL      0.073421
     91 H40        -4.1350    2.0790    3.8300 hc        1 MOL      0.073421
     92 H41        -4.0400    0.3040    3.6870 hc        1 MOL      0.073421
     93 N9         -5.1170    2.6910   -0.7580 n         1 MOL     -0.474179
     94 C29        -4.7950    3.0960   -2.1150 c3        1 MOL     -0.043374
     95 C30        -3.4070    3.6810   -2.2640 c         1 MOL      0.367289
     96 O16        -2.9820    3.6380   -3.4340 o         1 MOL     -0.548113
     97 C31        -5.9680    4.0020   -2.6360 c3        1 MOL      0.175602
     98 C32        -6.1700    5.1770   -1.6240 c3        1 MOL      0.077491
     99 C33        -7.2340    3.1400   -2.9210 c3        1 MOL     -0.235509
    100 C34        -7.1520    6.2350   -2.0080 c3        1 MOL     -0.245613
    101 H42        -5.3070    3.4810   -0.1580 hn        1 MOL      0.254169
    102 H43        -4.7300    2.1730   -2.6930 h1        1 MOL      0.131162
    103 H44        -5.6640    4.3870   -3.6110 hc        1 MOL      0.000606
    104 H45        -5.2690    5.7460   -1.3960 hc        1 MOL     -0.001736
    105 H46        -6.5250    4.7180   -0.7070 hc        1 MOL     -0.001736
    106 H47        -7.9650    3.7120   -3.5060 hc        1 MOL      0.068490
    107 H48        -7.0190    2.3250   -3.6050 hc        1 MOL      0.068490
    108 H49        -7.6550    2.8170   -1.9780 hc        1 MOL      0.068490
    109 H50        -6.6510    6.9990   -2.5920 hc        1 MOL      0.056545
    110 H51        -7.9510    5.7300   -2.5500 hc        1 MOL      0.056545
    111 H52        -7.5700    6.8000   -1.1770 hc        1 MOL      0.056545
    112 N10        -2.6150    4.0090   -1.2660 n         1 MOL      0.002894
    113 C35        -1.3480    4.7120   -1.5310 c3        1 MOL     -0.032409
    114 C36        -0.2100    3.8980   -1.1320 c         1 MOL      0.440810
    115 O17         0.1110    3.6470    0.0380 o         1 MOL     -0.429647
    116 C37        -1.5170    6.1470   -0.8450 c3        1 MOL      0.217756
    117 C38        -2.1040    5.9580    0.5930 c3        1 MOL     -0.266392
    118 O18        -2.3150    7.0530   -1.5710 oh        1 MOL     -0.617140
    119 H53        -2.8930    3.7910   -0.3200 hn        1 MOL      0.025586
    120 H54        -1.1850    4.9870   -2.5740 h1        1 MOL      0.129598
    121 H55        -0.5230    6.5850   -0.6790 h1        1 MOL      0.043018
    122 H56        -2.4730    7.8170   -1.0020 ho        1 MOL      0.414388
    123 H57        -1.6250    5.1050    1.0820 hc        1 MOL      0.058794
    124 H58        -1.8490    6.8870    1.1110 hc        1 MOL      0.058794
    125 H59        -3.1470    5.6380    0.6060 hc        1 MOL      0.058794
    126 N11         0.5380    3.3080   -2.1560 n         1 MOL     -0.535582
    127 C39         1.5610    2.1940   -1.9350 c3        1 MOL      0.011136
    128 C40         2.8100    2.7270   -1.2920 c         1 MOL      0.531676
    129 O19         3.0060    3.9300   -1.2740 o         1 MOL     -0.537033
    130 C41         1.8620    1.4690   -3.2200 c3        1 MOL      0.530995
    131 C42         2.2850    2.3610   -4.3920 c3        1 MOL     -0.281150
    132 O20         0.5780    0.9280   -3.6410 oh        1 MOL     -0.654105
    133 H60         0.2690    3.4760   -3.1100 hn        1 MOL      0.308070
    134 H61         1.0590    1.4380   -1.3450 h1        1 MOL      0.027373
    135 H62         2.5470    0.6290   -3.0850 h1        1 MOL     -0.081213
    136 H63         0.1190    0.6100   -2.8540 ho        1 MOL      0.359287
    137 H64         2.5240    1.7800   -5.2740 hc        1 MOL      0.064733
    138 H65         1.5200    3.1100   -4.5820 hc        1 MOL      0.064733
    139 H66         3.2000    2.8940   -4.1090 hc        1 MOL      0.064733
    140 N12         3.7250    1.8910   -0.8150 n         1 MOL     -0.400034
    141 C43         4.9670    2.3010   -0.1190 c3        1 MOL      0.101910
    142 C44         5.1080    1.8510    1.3580 c         1 MOL      0.564238
    143 O21         5.8680    2.5910    2.0500 o         1 MOL     -0.633925
    144 C45         6.1600    2.0280   -1.0420 c3        1 MOL     -0.086205
    145 C46         6.1800    2.7860   -2.3640 c3        1 MOL      0.049137
    146 C47         7.4850    2.5380   -3.1520 c3        1 MOL      0.004934
    147 C48         7.2030    3.1900   -4.5680 c3        1 MOL      0.063366
    148 N13         8.3460    2.9510   -5.4380 n4        1 MOL     -0.246546
    149 H67         3.5170    0.9010   -0.7210 hn        1 MOL      0.168272
    150 H68         4.8790    3.3850    0.0060 h1        1 MOL      0.074893
    151 H69         6.0490    0.9680   -1.2780 hc        1 MOL      0.016865
    152 H70         7.0520    2.2550   -0.4550 hc        1 MOL      0.016865
    153 H71         6.1410    3.8230   -2.0580 hc        1 MOL     -0.007780
    154 H72         5.2630    2.5790   -2.9140 hc        1 MOL     -0.007780
    155 H73         7.5390    1.4550   -3.2280 hc        1 MOL      0.033969
    156 H74         8.3790    2.8910   -2.6420 hc        1 MOL      0.033969
    157 H75         7.0240    4.2660   -4.5290 hx        1 MOL      0.058526
    158 H76         6.3290    2.7240   -5.0150 hx        1 MOL      0.058526
    159 H77         7.9810    2.8060   -6.3700 hn        1 MOL      0.262937
    160 H78         8.9250    3.7800   -5.4850 hn        1 MOL      0.262937
    161 H79         8.9460    2.1790   -5.1810 hn        1 MOL      0.262937
    162 N14         4.5640    0.7280    1.7510 n         1 MOL     -0.360362
    163 C49         4.7410    0.0930    3.0960 c3        1 MOL      0.056679
    164 C50         6.2770   -0.3720    3.2240 c         1 MOL      0.383557
    165 O22         6.6470   -1.2940    2.5370 o         1 MOL     -0.513099
    166 C51         3.7020   -0.9900    3.2310 c3        1 MOL     -0.414155
    167 C52         3.6330   -1.7460    4.6000 c3        1 MOL     -0.268358
    168 C53         3.7020   -0.7100    5.7220 c         1 MOL      0.463318
    169 O23         2.7640    0.1250    5.7940 o         1 MOL     -0.636769
    170 O24         4.7200   -0.6210    6.4360 o         1 MOL     -0.636769
    171 H80         3.8820    0.2470    1.1870 hn        1 MOL      0.269022
    172 H81         4.5150    0.7670    3.9310 h1        1 MOL      0.127437
    173 H82         3.9320   -1.7440    2.4780 hc        1 MOL      0.185690
    174 H83         2.7560   -0.5470    2.9360 hc        1 MOL      0.185690
    175 H84         4.4950   -2.4290    4.6320 hc        1 MOL      0.132609
    176 H85         2.7190   -2.3370    4.5970 hc        1 MOL      0.132609
    177 N15         7.1260    0.1360    4.0510 n         1 MOL     -0.072065
    178 C54         8.5700   -0.1250    4.1190 c3        1 MOL     -0.118048
    179 H86         8.7530   -0.9870    4.7590 h1        1 MOL      0.064380
    180 H87         8.9500   -0.3280    3.1180 h1        1 MOL      0.064380
    181 H88         9.0780    0.7480    4.5300 h1        1 MOL      0.064380
    182 H89         6.7750    0.8810    4.6260 hn        1 MOL      0.225407
    183 Ca1         0.2430    0.5320    5.5140 Ca        1 MOL      1.675658
    184 O25        -2.1220   -0.5660    6.4460 oh        1 MOL     -0.852899
    185 H90        -2.2170   -1.4680    6.1390 ho        1 MOL      0.425108
    186 H91        -2.9770   -0.3350    6.8100 ho        1 MOL      0.425108
    187 O26        -1.6810    2.4310    5.5860 oh        1 MOL     -0.852899
    188 H92        -1.4800    3.0360    6.3050 ho        1 MOL      0.425108
    189 H93        -2.6290    2.4280    5.5360 ho        1 MOL      0.425108
    190 O27         1.1450    3.1280    5.5090 oh        1 MOL     -0.852899
    191 H94         1.2960    3.8280    4.8720 ho        1 MOL      0.425108
    192 H95         1.0470    3.5890    6.3340 ho        1 MOL      0.425108
@<TRIPOS>BOND
     1    1    2 1   
     2    1    4 1   
     3    1    5 1   
     4    1    6 1   
     5    2    3 2   
     6    2    7 1   
     7    7    8 1   
     8    7   15 1   
     9    8    9 1   
    10    8   11 1   
    11    8   16 1   
    12    9   10 2   
    13    9   19 1   
    14   11   12 1   
    15   11   17 1   
    16   11   18 1   
    17   12   13 1   
    18   12   14 1   
    19   19   20 1   
    20   19   28 1   
    21   20   21 1   
    22   20   23 1   
    23   20   29 1   
    24   21   22 2   
    25   21   41 1   
    26   23   24 1   
    27   23   30 1   
    28   23   31 1   
    29   24   25 1   
    30   24   32 1   
    31   24   33 1   
    32   25   26 1   
    33   25   34 1   
    34   25   35 1   
    35   26   27 1   
    36   26   36 1   
    37   26   37 1   
    38   27   38 1   
    39   27   39 1   
    40   27   40 1   
    41   41   42 1   
    42   41   49 1   
    43   42   43 1   
    44   42   45 1   
    45   42   50 1   
    46   43   44 2   
    47   43   53 1   
    48   45   46 1   
    49   45   51 1   
    50   45   52 1   
    51   46   47 1   
    52   46   48 1   
    53   53   54 1   
    54   53   57 1   
    55   54   55 1   
    56   54   58 1   
    57   54   59 1   
    58   55   56 2   
    59   55   60 1   
    60   60   61 1   
    61   60   68 1   
    62   61   62 1   
    63   61   64 1   
    64   61   69 1   
    65   62   63 2   
    66   62   72 1   
    67   64   65 1   
    68   64   70 1   
    69   64   71 1   
    70   65   66 1   
    71   65   67 1   
    72   72   73 1   
    73   72   76 1   
    74   73   74 1   
    75   73   77 1   
    76   73   78 1   
    77   74   75 2   
    78   74   79 1   
    79   79   80 1   
    80   79   86 1   
    81   80   81 1   
    82   80   83 1   
    83   80   87 1   
    84   81   82 2   
    85   81   93 1   
    86   83   84 1   
    87   83   85 1   
    88   83   88 1   
    89   84   90 1   
    90   84   91 1   
    91   84   92 1   
    92   85   89 1   
    93   93   94 1   
    94   93  101 1   
    95   94   95 1   
    96   94   97 1   
    97   94  102 1   
    98   95   96 2   
    99   95  112 1   
   100   97   98 1   
   101   97   99 1   
   102   97  103 1   
   103   98  100 1   
   104   98  104 1   
   105   98  105 1   
   106   99  106 1   
   107   99  107 1   
   108   99  108 1   
   109  100  109 1   
   110  100  110 1   
   111  100  111 1   
   112  112  113 1   
   113  112  119 1   
   114  113  114 1   
   115  113  116 1   
   116  113  120 1   
   117  114  115 2   
   118  114  126 1   
   119  116  117 1   
   120  116  118 1   
   121  116  121 1   
   122  117  123 1   
   123  117  124 1   
   124  117  125 1   
   125  118  122 1   
   126  126  127 1   
   127  126  133 1   
   128  127  128 1   
   129  127  130 1   
   130  127  134 1   
   131  128  129 2   
   132  128  140 1   
   133  130  131 1   
   134  130  132 1   
   135  130  135 1   
   136  131  137 1   
   137  131  138 1   
   138  131  139 1   
   139  132  136 1   
   140  140  141 1   
   141  140  149 1   
   142  141  142 1   
   143  141  144 1   
   144  141  150 1   
   145  142  143 2   
   146  142  162 1   
   147  144  145 1   
   148  144  151 1   
   149  144  152 1   
   150  145  146 1   
   151  145  153 1   
   152  145  154 1   
   153  146  147 1   
   154  146  155 1   
   155  146  156 1   
   156  147  148 1   
   157  147  157 1   
   158  147  158 1   
   159  148  159 1   
   160  148  160 1   
   161  148  161 1   
   162  162  163 1   
   163  162  171 1   
   164  163  164 1   
   165  163  166 1   
   166  163  172 1   
   167  164  165 2   
   168  164  177 1   
   169  166  167 1   
   170  166  173 1   
   171  166  174 1   
   172  167  168 1   
   173  167  175 1   
   174  167  176 1   
   175  168  169 1   
   176  168  170 1   
   177  177  178 1   
   178  177  182 1   
   179  178  179 1   
   180  178  180 1   
   181  178  181 1   
   182  184  185 1   
   183  184  186 1   
   184  187  188 1   
   185  187  189 1   
   186  190  191 1   
   187  190  192 1   
@<TRIPOS>SUBSTRUCTURE
     1 MOL         1 TEMP              0 ****  ****    0 ROOT
