@<TRIPOS>MOLECULE
MOL
  182   178     1     0     0
SMALL
resp


@<TRIPOS>ATOM
      1 C1          0.2910   -4.0190    5.9560 c3        1 MOL     -0.356830
      2 C2          0.3650   -3.9140    4.4050 c         1 MOL      0.670227
      3 O1         -0.6360   -3.8790    3.6480 o         1 MOL     -0.566710
      4 H1          1.2910   -3.9150    6.3750 hc        1 MOL      0.105328
      5 H2         -0.3490   -3.2270    6.3440 hc        1 MOL      0.105328
      6 H3         -0.1200   -4.9890    6.2360 hc        1 MOL      0.105328
      7 N1          1.5950   -3.6440    3.9580 n         1 MOL     -0.505476
      8 C3          1.9110   -3.2870    2.5630 c3        1 MOL      0.013391
      9 C4          1.8280   -4.5340    1.5860 c         1 MOL      0.581769
     10 O2          2.1820   -5.6390    1.8960 o         1 MOL     -0.555004
     11 C5          3.3030   -2.5720    2.5910 c3        1 MOL     -0.577106
     12 C6          3.5370   -1.6290    1.4180 c         1 MOL      0.921918
     13 O3          3.8950   -0.4660    1.5960 o         1 MOL     -0.785464
     14 O4          3.2950   -2.0160    0.2800 o         1 MOL     -0.785464
     15 H4          2.4150   -3.6570    4.5390 hn        1 MOL      0.339171
     16 H5          1.1810   -2.5530    2.2310 h1        1 MOL      0.010743
     17 H6          4.1180   -3.2730    2.4040 hc        1 MOL      0.189636
     18 H7          3.2070   -2.0480    3.5400 hc        1 MOL      0.189636
     19 N2          1.3970   -4.2790    0.3710 n         1 MOL     -0.083508
     20 C7          1.4500   -5.1410   -0.7940 c3        1 MOL     -0.097384
     21 C8          2.6370   -4.9590   -1.7650 c         1 MOL      0.562995
     22 O5          2.9290   -5.8470   -2.5640 o         1 MOL     -0.596018
     23 C9          0.1580   -5.0230   -1.5700 c3        1 MOL      0.044660
     24 C10        -0.8930   -5.9930   -1.0400 c3        1 MOL      0.007577
     25 C11        -2.2700   -5.7970   -1.7370 c3        1 MOL      0.024393
     26 C12        -3.2880   -6.8650   -1.4320 c3        1 MOL      0.114030
     27 N3         -4.3270   -6.9750   -2.4020 n4        1 MOL     -0.244049
     28 H8          1.1480   -3.3090    0.2320 hn        1 MOL     -0.121742
     29 H9          1.4890   -6.1950   -0.5140 h1        1 MOL      0.101878
     30 H10         0.2620   -5.3100   -2.6170 hc        1 MOL     -0.008861
     31 H11        -0.1560   -3.9780   -1.4960 hc        1 MOL     -0.008861
     32 H12        -1.1120   -5.8890    0.0160 hc        1 MOL      0.018455
     33 H13        -0.4800   -6.9700   -1.2730 hc        1 MOL      0.018455
     34 H14        -2.0800   -5.8530   -2.8100 hc        1 MOL      0.000517
     35 H15        -2.5240   -4.8140   -1.3350 hc        1 MOL      0.000517
     36 H16        -3.7460   -6.5460   -0.4960 hx        1 MOL      0.043199
     37 H17        -2.7780   -7.8100   -1.2860 hx        1 MOL      0.043199
     38 H18        -4.9950   -6.2250   -2.4700 hn        1 MOL      0.236113
     39 H19        -3.9200   -7.1230   -3.3190 hn        1 MOL      0.236113
     40 H20        -4.9030   -7.7990   -2.2580 hn        1 MOL      0.236113
     41 N4          3.4820   -3.9940   -1.6600 n         1 MOL     -0.276230
     42 C13         4.7550   -3.8820   -2.4000 c3        1 MOL      0.168415
     43 C14         5.9930   -3.6170   -1.5310 c         1 MOL      0.287257
     44 O6          7.1140   -4.0400   -1.8860 o         1 MOL     -0.482057
     45 C15         4.7170   -2.8260   -3.5130 c3        1 MOL     -0.456394
     46 C16         4.1650   -1.5840   -2.9780 c         1 MOL      0.977185
     47 O7          4.7760   -0.9350   -2.1180 o         1 MOL     -0.832869
     48 O8          3.0130   -1.2340   -3.1790 o         1 MOL     -0.832869
     49 H21         3.3630   -3.2700   -0.9600 hn        1 MOL      0.194224
     50 H22         4.9860   -4.8720   -2.7820 h1        1 MOL      0.104043
     51 H23         4.0160   -3.2280   -4.2470 hc        1 MOL      0.127243
     52 H24         5.6780   -2.6370   -3.9950 hc        1 MOL      0.127243
     53 N5          5.8810   -2.9680   -0.3240 n         1 MOL     -0.080817
     54 C17         6.9750   -2.7070    0.6800 c3        1 MOL     -0.054282
     55 C18         7.7670   -1.4090    0.5250 c         1 MOL      0.656427
     56 O9          8.8950   -1.2870    1.0050 o         1 MOL     -0.570905
     57 H25         4.9660   -2.5840   -0.1200 hn        1 MOL      0.034585
     58 H26         7.6590   -3.5500    0.8010 h1        1 MOL      0.047495
     59 H27         6.4710   -2.5580    1.6390 h1        1 MOL      0.047495
     60 N6          7.1710   -0.4530   -0.1300 n         1 MOL     -0.408418
     61 C19         7.6430    0.9760   -0.0010 c3        1 MOL      0.144771
     62 C20         6.3970    1.9310   -0.0220 c         1 MOL      0.462286
     63 O10         5.2590    1.4330   -0.1060 o         1 MOL     -0.416978
     64 C21         8.6630    1.3270   -1.0530 c3        1 MOL     -0.593154
     65 C22         9.9630    0.4950   -0.9650 c         1 MOL      0.756999
     66 N7         10.9680    0.8830   -0.1990 n         1 MOL     -0.866790
     67 O11        10.0540   -0.5310   -1.6030 o         1 MOL     -0.526926
     68 H28         6.2780   -0.6280   -0.5770 hn        1 MOL      0.323963
     69 H29         8.0330    1.1050    1.0060 h1        1 MOL      0.037282
     70 H30         8.9370    2.3810   -1.0140 hc        1 MOL      0.157345
     71 H31         8.1680    1.2030   -2.0240 hc        1 MOL      0.157345
     72 H32        10.7450    1.6030    0.4840 hn        1 MOL      0.396956
     73 H33        11.7320    0.2320   -0.1540 hn        1 MOL      0.396956
     74 N8          6.5530    3.2220   -0.1060 n         1 MOL     -0.354798
     75 C23         5.6290    4.2350   -0.4840 c3        1 MOL     -0.057121
     76 C24         4.6080    4.6390    0.5850 c         1 MOL      0.516270
     77 O12         4.8710    4.6190    1.8110 o         1 MOL     -0.484137
     78 H34         7.4900    3.5730    0.0210 hn        1 MOL      0.274161
     79 H35         5.1690    3.7240   -1.3230 h1        1 MOL      0.065831
     80 H36         6.1380    5.1080   -0.8930 h1        1 MOL      0.065831
     81 N9          3.3510    4.7550    0.0740 n         1 MOL     -0.581569
     82 C25         2.0420    4.7120    0.8330 c3        1 MOL      0.287306
     83 C26         1.6130    3.2510    1.1660 c         1 MOL      0.731646
     84 O13         2.2480    2.3670    0.6730 o         1 MOL     -0.620390
     85 C27         0.8640    5.5430    0.1640 c3        1 MOL     -0.116570
     86 C28         1.2390    6.9760   -0.2410 ca        1 MOL      0.019274
     87 C29         1.5340    7.9920    0.7120 ca        1 MOL     -0.117231
     88 C30         1.2180    7.3500   -1.6300 ca        1 MOL     -0.117231
     89 C31         1.9070    9.2770    0.2950 ca        1 MOL     -0.315545
     90 C32         1.6000    8.6170   -2.0530 ca        1 MOL     -0.315545
     91 C33         1.9040    9.5780   -1.0800 ca        1 MOL      0.426150
     92 O14         2.1660   10.9080   -1.3650 oh        1 MOL     -0.521719
     93 H37         3.2210    4.9250   -0.9110 hn        1 MOL      0.279896
     94 H38         2.1660    5.3370    1.7200 h1        1 MOL      0.013466
     95 H39         0.0030    5.5430    0.8350 hc        1 MOL      0.026198
     96 H40         0.6070    4.9230   -0.6910 hc        1 MOL      0.026198
     97 H41         1.6040    7.7550    1.7670 ha        1 MOL      0.129997
     98 H42         1.0070    6.5810   -2.3570 ha        1 MOL      0.129997
     99 H43         2.0840   10.0920    0.9750 ha        1 MOL      0.178135
    100 H44         1.4990    8.8670   -3.0980 ha        1 MOL      0.178135
    101 H45         2.2720   11.4500   -0.5730 ho        1 MOL      0.378158
    102 N10         0.5260    3.0010    1.8580 n         1 MOL     -0.918971
    103 C34         0.1530    1.6300    2.4600 c3        1 MOL      0.665646
    104 C35        -0.1090    0.5000    1.3510 c         1 MOL      0.098936
    105 O15         0.8500   -0.1360    0.9220 o         1 MOL     -0.190975
    106 C36         1.0800    1.2090    3.6280 c3        1 MOL      0.010226
    107 C37         0.8050   -0.2070    4.2720 c3        1 MOL     -0.158718
    108 C38         1.1120    2.3180    4.6990 c3        1 MOL     -0.329504
    109 C39        -0.5840   -0.3210    5.0230 c3        1 MOL      0.000930
    110 H46         0.1570    3.8110    2.3220 hn        1 MOL      0.360430
    111 H47        -0.8240    1.7470    2.9460 h1        1 MOL     -0.062852
    112 H48         2.0250    1.2240    3.0840 hc        1 MOL      0.064095
    113 H49         1.5850   -0.5650    4.9340 hc        1 MOL      0.075712
    114 H50         0.7020   -0.9110    3.4390 hc        1 MOL      0.075712
    115 H51         1.6460    1.8510    5.5240 hc        1 MOL      0.082430
    116 H52         1.5440    3.1980    4.2180 hc        1 MOL      0.082430
    117 H53         0.1000    2.5750    5.0230 hc        1 MOL      0.082430
    118 H54        -1.4530   -0.0250    4.4340 hc        1 MOL      0.007468
    119 H55        -0.7360   -1.3100    5.4380 hc        1 MOL      0.007468
    120 H56        -0.6950    0.3210    5.9030 hc        1 MOL      0.007468
    121 N11        -1.3870    0.3100    0.9720 n         1 MOL     -0.504346
    122 C40        -1.7740   -0.8280    0.0880 c3        1 MOL      0.112631
    123 C41        -3.2910   -0.8400   -0.3670 c         1 MOL      0.492432
    124 O16        -3.8040   -1.8340   -0.8640 o         1 MOL     -0.553073
    125 C42        -1.4200   -2.0960    0.8220 c3        1 MOL      0.102065
    126 O17        -1.9630   -2.0860    2.1500 oh        1 MOL     -0.578287
    127 H57        -2.0410    0.9060    1.4480 hn        1 MOL      0.349921
    128 H58        -1.1440   -0.7550   -0.8000 h1        1 MOL      0.027288
    129 H59        -0.3390   -2.2380    0.8170 h1        1 MOL      0.093374
    130 H60        -1.8670   -2.8990    0.2480 h1        1 MOL      0.093374
    131 H61        -1.6920   -2.8870    2.6140 ho        1 MOL      0.382779
    132 N12        -4.0430    0.1530   -0.0470 n         1 MOL     -0.369137
    133 C43        -5.4240    0.3210   -0.5020 c3        1 MOL     -0.002750
    134 C44        -5.6420    0.7740   -1.9650 c         1 MOL      0.657765
    135 O18        -4.7660    1.3080   -2.6170 o         1 MOL     -0.580164
    136 C45        -6.0230    1.3140    0.5510 c3        1 MOL     -0.216661
    137 H62        -3.6790    0.8900    0.5430 hn        1 MOL      0.231416
    138 H63        -5.9860   -0.6130   -0.4120 h1        1 MOL      0.155274
    139 H64        -7.0850    1.0920    0.6240 hc        1 MOL      0.083299
    140 H65        -5.6970    1.1330    1.5740 hc        1 MOL      0.083299
    141 H66        -5.7590    2.3360    0.2600 hc        1 MOL      0.083299
    142 N13        -6.8290    0.5780   -2.5080 n         1 MOL     -0.654767
    143 C46        -8.0210    0.0340   -1.9550 c3        1 MOL      0.461151
    144 C47        -9.2430    0.7230   -2.5870 c         1 MOL      0.417974
    145 O19        -9.2180    1.1020   -3.7500 o         1 MOL     -0.524932
    146 C48        -8.0530   -1.4460   -2.0300 c3        1 MOL     -0.240248
    147 H67        -6.8520    0.8990   -3.4650 hn        1 MOL      0.320169
    148 H68        -8.0290    0.4290   -0.9420 h1        1 MOL     -0.159385
    149 H69        -7.9950   -1.8250   -3.0530 hc        1 MOL      0.066297
    150 H70        -7.3000   -1.8560   -1.3570 hc        1 MOL      0.066297
    151 H71        -9.0580   -1.6730   -1.7000 hc        1 MOL      0.066297
    152 N14       -10.4060    0.7390   -1.9660 n         1 MOL     -0.368062
    153 C49       -10.6900    0.4810   -0.5420 c3        1 MOL     -0.115230
    154 C50        -9.8960    1.2640    0.5100 c         1 MOL      0.594209
    155 O20        -9.5130    0.7010    1.5340 o         1 MOL     -0.540613
    156 C51       -12.2060    0.7010   -0.4670 c3        1 MOL      0.056516
    157 C52       -12.7030    0.1350    0.8930 c3        1 MOL     -0.183476
    158 C53       -14.2340   -0.0240    1.0950 c         1 MOL      0.678341
    159 O21       -14.8370   -1.0970    0.7570 o         1 MOL     -0.647511
    160 O22       -14.9490    0.9080    1.5140 o         1 MOL     -0.647511
    161 H72       -11.0270    1.3770   -2.4440 hn        1 MOL      0.254115
    162 H73       -10.4770   -0.5570   -0.2950 h1        1 MOL      0.113376
    163 H74       -12.7560    0.1620   -1.2420 hc        1 MOL      0.023679
    164 H75       -12.4480    1.7530   -0.4020 hc        1 MOL      0.023679
    165 H76       -12.3330    0.7640    1.6960 hc        1 MOL      0.023762
    166 H77       -12.2680   -0.8540    1.0450 hc        1 MOL      0.023762
    167 N15        -9.5710    2.5170    0.1560 n         1 MOL     -0.283698
    168 C54        -8.8960    3.4930    0.9950 c3        1 MOL     -0.213046
    169 H78        -7.9160    3.1100    1.2800 h1        1 MOL      0.103087
    170 H79        -8.7760    4.4250    0.4440 h1        1 MOL      0.103087
    171 H80        -9.4890    3.6750    1.8910 h1        1 MOL      0.103087
    172 H81        -9.9440    2.8370   -0.7270 hn        1 MOL      0.252757
    173 Ca1         2.8700    0.3020   -0.8950 Ca        1 MOL      1.784589
    174 O23         3.7750    2.0840   -2.7540 oh        1 MOL     -0.853095
    175 H82         4.3180    1.7030   -3.4530 ho        1 MOL      0.422924
    176 H83         3.8550    3.0310   -2.8780 ho        1 MOL      0.422924
    177 O24         0.6890    1.4910   -1.9540 oh        1 MOL     -0.853095
    178 H84         0.6160    2.3500   -2.3690 ho        1 MOL      0.422924
    179 H85        -0.2200    1.1930   -1.8520 ho        1 MOL      0.422924
    180 O25         0.7640   -1.7070   -2.0350 oh        1 MOL     -0.853095
    181 H86        -0.0200   -1.7390   -2.5880 ho        1 MOL      0.422924
    182 H87         1.4890   -1.7670   -2.6610 ho        1 MOL      0.422924
@<TRIPOS>BOND
     1    1    2 1   
     2    1    4 1   
     3    1    5 1   
     4    1    6 1   
     5    2    3 2   
     6    2    7 1   
     7    7    8 1   
     8    7   15 1   
     9    8    9 1   
    10    8   11 1   
    11    8   16 1   
    12    9   10 2   
    13    9   19 1   
    14   11   12 1   
    15   11   17 1   
    16   11   18 1   
    17   12   13 1   
    18   12   14 1   
    19   19   20 1   
    20   19   28 1   
    21   20   21 1   
    22   20   23 1   
    23   20   29 1   
    24   21   22 2   
    25   21   41 1   
    26   23   24 1   
    27   23   30 1   
    28   23   31 1   
    29   24   25 1   
    30   24   32 1   
    31   24   33 1   
    32   25   26 1   
    33   25   34 1   
    34   25   35 1   
    35   26   27 1   
    36   26   36 1   
    37   26   37 1   
    38   27   38 1   
    39   27   39 1   
    40   27   40 1   
    41   41   42 1   
    42   41   49 1   
    43   42   43 1   
    44   42   45 1   
    45   42   50 1   
    46   43   44 2   
    47   43   53 1   
    48   45   46 1   
    49   45   51 1   
    50   45   52 1   
    51   46   47 1   
    52   46   48 1   
    53   53   54 1   
    54   53   57 1   
    55   54   55 1   
    56   54   58 1   
    57   54   59 1   
    58   55   56 2   
    59   55   60 1   
    60   60   61 1   
    61   60   68 1   
    62   61   62 1   
    63   61   64 1   
    64   61   69 1   
    65   62   63 2   
    66   62   74 1   
    67   64   65 1   
    68   64   70 1   
    69   64   71 1   
    70   65   66 1   
    71   65   67 2   
    72   66   72 1   
    73   66   73 1   
    74   74   75 1   
    75   74   78 1   
    76   75   76 1   
    77   75   79 1   
    78   75   80 1   
    79   76   77 2   
    80   76   81 1   
    81   81   82 1   
    82   81   93 1   
    83   82   83 1   
    84   82   85 1   
    85   82   94 1   
    86   83   84 2   
    87   83  102 1   
    88   85   86 1   
    89   85   95 1   
    90   85   96 1   
    91   86   87 ar  
    92   86   88 ar  
    93   87   89 ar  
    94   87   97 1   
    95   88   90 ar  
    96   88   98 1   
    97   89   91 ar  
    98   89   99 1   
    99   90   91 ar  
   100   90  100 1   
   101   91   92 1   
   102   92  101 1   
   103  102  103 1   
   104  102  110 1   
   105  103  104 1   
   106  103  106 1   
   107  103  111 1   
   108  104  105 2   
   109  104  121 1   
   110  106  107 1   
   111  106  108 1   
   112  106  112 1   
   113  107  109 1   
   114  107  113 1   
   115  107  114 1   
   116  108  115 1   
   117  108  116 1   
   118  108  117 1   
   119  109  118 1   
   120  109  119 1   
   121  109  120 1   
   122  121  122 1   
   123  121  127 1   
   124  122  123 1   
   125  122  125 1   
   126  122  128 1   
   127  123  124 2   
   128  123  132 1   
   129  125  126 1   
   130  125  129 1   
   131  125  130 1   
   132  126  131 1   
   133  132  133 1   
   134  132  137 1   
   135  133  134 1   
   136  133  136 1   
   137  133  138 1   
   138  134  135 2   
   139  134  142 1   
   140  136  139 1   
   141  136  140 1   
   142  136  141 1   
   143  142  143 1   
   144  142  147 1   
   145  143  144 1   
   146  143  146 1   
   147  143  148 1   
   148  144  145 2   
   149  144  152 1   
   150  146  149 1   
   151  146  150 1   
   152  146  151 1   
   153  152  153 1   
   154  152  161 1   
   155  153  154 1   
   156  153  156 1   
   157  153  162 1   
   158  154  155 2   
   159  154  167 1   
   160  156  157 1   
   161  156  163 1   
   162  156  164 1   
   163  157  158 1   
   164  157  165 1   
   165  157  166 1   
   166  158  159 1   
   167  158  160 1   
   168  167  168 1   
   169  167  172 1   
   170  168  169 1   
   171  168  170 1   
   172  168  171 1   
   173  174  175 1   
   174  174  176 1   
   175  177  178 1   
   176  177  179 1   
   177  180  181 1   
   178  180  182 1   
@<TRIPOS>SUBSTRUCTURE
     1 MOL         1 TEMP              0 ****  ****    0 ROOT
