@<TRIPOS>MOLECULE
MOL
  185   180     1     0     0
SMALL
resp


@<TRIPOS>ATOM
      1 C1         -5.8090    1.9570   -6.1510 c3        1 MOL     -0.411068
      2 C2         -5.1890    1.8660   -4.7080 c         1 MOL      0.553373
      3 O1         -4.0120    2.1280   -4.3860 o         1 MOL     -0.585482
      4 H1         -5.2340    2.6630   -6.7500 hc        1 MOL      0.114154
      5 H2         -5.7810    0.9750   -6.6230 hc        1 MOL      0.114154
      6 H3         -6.8430    2.2980   -6.0830 hc        1 MOL      0.114154
      7 N1         -5.9470    1.4110   -3.7020 n         1 MOL     -0.299237
      8 C3         -5.5740    1.2780   -2.2870 c3        1 MOL     -0.001766
      9 C4         -4.7550    0.0200   -2.0520 c         1 MOL      0.403841
     10 O2         -3.5630    0.0380   -1.6350 o         1 MOL     -0.570638
     11 C5         -6.8690    1.2930   -1.4130 c3        1 MOL     -0.116666
     12 C6         -8.0480    0.4030   -1.7880 c         1 MOL      0.678422
     13 O3         -8.9800    0.3100   -0.9830 o         1 MOL     -0.639884
     14 O4         -8.0810   -0.2270   -2.8960 o         1 MOL     -0.639884
     15 H4         -6.8690    1.0560   -3.8800 hn        1 MOL      0.160564
     16 H5         -5.0830    2.1610   -1.8700 h1        1 MOL      0.096722
     17 H6         -7.1940    2.3370   -1.5070 hc        1 MOL      0.042504
     18 H7         -6.5730    1.0680   -0.3910 hc        1 MOL      0.042504
     19 N2         -5.2950   -1.1140   -2.4970 n         1 MOL     -0.134242
     20 C7         -4.5310   -2.4090   -2.3570 c3        1 MOL     -0.193210
     21 C8         -4.7400   -2.9340   -0.9890 c         1 MOL      0.563043
     22 O5         -5.8770   -3.0820   -0.5030 o         1 MOL     -0.539829
     23 C9         -5.0240   -3.4520   -3.4850 c3        1 MOL      0.112453
     24 C10        -3.9690   -4.6110   -3.5260 c3        1 MOL     -0.321161
     25 C11        -4.4410   -5.7290   -4.4020 c3        1 MOL      0.156477
     26 C12        -3.3020   -6.7050   -4.6320 c3        1 MOL     -0.034164
     27 N3         -3.7270   -7.8790   -5.4380 n4        1 MOL     -0.247222
     28 H8         -6.2060   -1.1640   -2.9360 hn        1 MOL      0.159783
     29 H9         -3.4770   -2.1640   -2.4890 h1        1 MOL      0.148921
     30 H10        -5.0810   -2.8650   -4.4030 hc        1 MOL      0.027006
     31 H11        -6.0180   -3.8600   -3.3410 hc        1 MOL      0.027006
     32 H12        -3.8750   -4.9220   -2.4850 hc        1 MOL      0.103489
     33 H13        -3.0290   -4.1950   -3.8800 hc        1 MOL      0.103489
     34 H14        -4.7020   -5.2770   -5.3640 hc        1 MOL      0.000094
     35 H15        -5.3820   -6.1930   -4.1350 hc        1 MOL      0.000094
     36 H16        -2.9320   -7.0480   -3.6650 hx        1 MOL      0.100265
     37 H17        -2.4350   -6.2180   -5.0760 hx        1 MOL      0.100265
     38 H18        -4.5930   -8.3010   -5.1230 hn        1 MOL      0.271485
     39 H19        -3.9560   -7.6950   -6.4130 hn        1 MOL      0.271485
     40 H20        -3.0190   -8.5620   -5.6870 hn        1 MOL      0.271485
     41 N4         -3.6370   -3.1840   -0.2720 n         1 MOL     -0.338237
     42 C13        -3.5290   -3.7060    1.1120 c3        1 MOL     -0.023768
     43 C14        -4.0080   -2.6840    2.1710 c         1 MOL      0.626434
     44 O6         -3.7730   -1.5250    2.0720 o         1 MOL     -0.486561
     45 C15        -2.1020   -4.1780    1.2790 c3        1 MOL     -0.315483
     46 C16        -1.0150   -3.1690    0.9160 c         1 MOL      0.764662
     47 O7         -0.2690   -2.6940    1.7990 o         1 MOL     -0.745419
     48 O8         -0.9060   -2.8080   -0.2890 o         1 MOL     -0.745419
     49 H21        -2.7680   -2.9200   -0.7260 hn        1 MOL      0.218476
     50 H22        -4.1660   -4.5890    1.2000 h1        1 MOL      0.045506
     51 H23        -2.0650   -4.9920    0.5620 hc        1 MOL      0.095198
     52 H24        -2.0430   -4.4750    2.3250 hc        1 MOL      0.095198
     53 N5         -4.5940   -3.2350    3.2730 n         1 MOL     -0.499190
     54 C17        -4.9280   -2.4150    4.4490 c3        1 MOL      0.115160
     55 C18        -6.2830   -1.6990    4.3100 c         1 MOL      0.538562
     56 O9         -7.2520   -2.3870    4.4680 o         1 MOL     -0.567688
     57 H25        -4.6570   -4.2350    3.4080 hn        1 MOL      0.317408
     58 H26        -4.2220   -1.6340    4.7370 h1        1 MOL      0.015514
     59 H27        -5.0140   -3.1060    5.3000 h1        1 MOL      0.015514
     60 N6         -6.3640   -0.4200    4.1990 n         1 MOL     -0.437687
     61 C19        -5.3340    0.6540    4.0320 c3        1 MOL      0.201241
     62 C20        -5.7300    1.5400    2.7540 c         1 MOL      0.531106
     63 O10        -6.8560    1.5040    2.3030 o         1 MOL     -0.500784
     64 C21        -5.1460    1.4880    5.3530 c3        1 MOL     -0.556775
     65 C22        -4.4330    0.6030    6.3650 c         1 MOL      0.669446
     66 N7         -4.9130    0.4810    7.6470 n         1 MOL     -0.785702
     67 O11        -3.4400   -0.0090    6.0540 o         1 MOL     -0.515732
     68 H28        -7.3080   -0.0810    4.0940 hn        1 MOL      0.303063
     69 H29        -4.3260    0.3070    3.7770 h1        1 MOL      0.098964
     70 H30        -6.1170    1.7140    5.7870 hc        1 MOL      0.175126
     71 H31        -4.5490    2.3770    5.1500 hc        1 MOL      0.175126
     72 H32        -5.8510    0.8120    7.8560 hn        1 MOL      0.361399
     73 H33        -4.5340   -0.2140    8.2690 hn        1 MOL      0.361399
     74 N8         -4.8270    2.3840    2.1360 n         1 MOL     -0.478918
     75 C23        -3.4370    2.7010    2.5130 c3        1 MOL      0.014144
     76 C24        -2.6590    3.4790    1.3540 c         1 MOL      0.572485
     77 O12        -3.3460    4.1480    0.5330 o         1 MOL     -0.515729
     78 H34        -5.1900    2.9740    1.3990 hn        1 MOL      0.289693
     79 H35        -2.9610    1.7410    2.6820 h1        1 MOL      0.027449
     80 H36        -3.4340    3.2810    3.4370 h1        1 MOL      0.027449
     81 N9         -1.3660    3.3160    1.2910 n         1 MOL     -0.579061
     82 C25        -0.5480    3.9750    0.2530 c3        1 MOL      0.223946
     83 C26         0.6400    3.0870   -0.2220 c         1 MOL      0.582779
     84 O13         0.7010    1.9930    0.3510 o         1 MOL     -0.450237
     85 C27         0.0980    5.2650    0.8250 c3        1 MOL     -0.298046
     86 C28         0.7780    6.2340   -0.1690 ca        1 MOL      0.107440
     87 C29         2.0250    6.8030    0.1550 ca        1 MOL     -0.197008
     88 C30         0.1570    6.5250   -1.4770 ca        1 MOL     -0.197008
     89 C31         2.6420    7.6380   -0.7880 ca        1 MOL     -0.226303
     90 C32         0.7700    7.4690   -2.3680 ca        1 MOL     -0.226303
     91 C33         2.0260    7.9570   -2.0320 ca        1 MOL      0.312109
     92 O14         2.7350    8.6560   -2.9820 oh        1 MOL     -0.513061
     93 H37        -0.9290    2.6210    1.8710 hn        1 MOL      0.334704
     94 H38        -1.1390    4.1860   -0.6370 h1        1 MOL      0.033780
     95 H39         0.7570    4.9970    1.6500 hc        1 MOL      0.113588
     96 H40        -0.7130    5.8330    1.2700 hc        1 MOL      0.113588
     97 H41         2.4120    6.6760    1.1460 ha        1 MOL      0.161691
     98 H42        -0.7750    6.0160   -1.6630 ha        1 MOL      0.161691
     99 H43         3.5500    8.2050   -0.6490 ha        1 MOL      0.149643
    100 H44         0.2220    7.7180   -3.2710 ha        1 MOL      0.149643
    101 H45         2.2970    8.7200   -3.8300 ho        1 MOL      0.384588
    102 N10         1.4430    3.4680   -1.2130 n         1 MOL     -0.572126
    103 C34         2.7010    2.7180   -1.5290 c3        1 MOL      0.038645
    104 C35         3.7070    2.8430   -0.3440 c         1 MOL      0.482602
    105 O15         3.8960    3.8910    0.2760 o         1 MOL     -0.498072
    106 C36         3.2950    3.2780   -2.8740 c3        1 MOL      0.019425
    107 C37         2.4770    2.6670   -4.0270 c3        1 MOL     -0.141476
    108 C38         3.5230    4.7790   -2.8860 c3        1 MOL     -0.042103
    109 C39         2.4760    1.0460   -4.1480 c3        1 MOL     -0.022047
    110 H46         1.3640    4.4280   -1.5210 hn        1 MOL      0.285179
    111 H47         2.4770    1.6580   -1.6340 h1        1 MOL      0.176937
    112 H48         4.3160    2.8970   -2.9640 hc        1 MOL      0.005781
    113 H49         2.7570    3.0300   -5.0170 hc        1 MOL      0.034790
    114 H50         1.4690    3.0280   -3.8750 hc        1 MOL      0.034790
    115 H51         2.5700    5.2920   -2.7710 hc        1 MOL      0.029525
    116 H52         4.2140    5.0850   -2.1010 hc        1 MOL      0.029525
    117 H53         3.9720    5.1380   -3.8170 hc        1 MOL      0.029525
    118 H54         1.7470    0.7660   -3.3930 hc        1 MOL      0.020997
    119 H55         2.1040    0.6880   -5.1080 hc        1 MOL      0.020997
    120 H56         3.4710    0.6990   -3.8440 hc        1 MOL      0.020997
    121 N11         4.3610    1.7350    0.0460 n         1 MOL     -0.683800
    122 C40         5.4600    1.7410    0.9530 c3        1 MOL      0.657253
    123 C41         5.5960    0.4330    1.6790 c         1 MOL      0.136083
    124 O16         5.3310   -0.6190    1.0880 o         1 MOL     -0.232166
    125 C42         6.7510    1.9970    0.1670 c3        1 MOL     -0.185939
    126 O17         7.8760    2.1910    1.0610 oh        1 MOL     -0.642846
    127 H57         4.1130    0.8420   -0.3500 hn        1 MOL      0.239367
    128 H58         5.2690    2.5070    1.7080 h1        1 MOL     -0.029886
    129 H59         6.6210    3.0020   -0.2410 h1        1 MOL      0.126306
    130 H60         7.0030    1.1990   -0.5270 h1        1 MOL      0.126306
    131 H61         8.6550    2.4720    0.5740 ho        1 MOL      0.434850
    132 N12         6.1040    0.3990    2.9290 n         1 MOL     -0.384224
    133 C43         6.2640   -0.7680    3.7930 c3        1 MOL      0.005502
    134 C44         6.9340   -1.8970    2.9910 c         1 MOL      0.380221
    135 O18         6.4840   -3.0380    2.9510 o         1 MOL     -0.437414
    136 C45         5.0580   -1.2310    4.5580 c3        1 MOL     -0.131309
    137 H62         6.3830    1.3190    3.2620 hn        1 MOL      0.300051
    138 H63         6.9970   -0.4940    4.5590 h1        1 MOL      0.101673
    139 H64         4.2910   -1.6660    3.9090 hc        1 MOL      0.052105
    140 H65         5.2410   -1.9850    5.3300 hc        1 MOL      0.052105
    141 H66         4.5440   -0.4750    5.1540 hc        1 MOL      0.052105
    142 N13         7.9570   -1.5350    2.2140 n         1 MOL     -0.277190
    143 C46         8.8520   -2.3910    1.3480 c3        1 MOL      0.206599
    144 C47         8.0730   -3.4330    0.5480 c         1 MOL      0.232607
    145 O19         8.4950   -4.5700    0.2930 o         1 MOL     -0.472758
    146 C48         9.9190   -3.0790    2.2320 c3        1 MOL     -0.314998
    147 H67         8.2070   -0.5580    2.1860 hn        1 MOL      0.190681
    148 H68         9.4300   -1.7830    0.6630 h1        1 MOL      0.041330
    149 H69        10.7110   -3.5240    1.6440 hc        1 MOL      0.093959
    150 H70        10.2820   -2.3700    2.9730 hc        1 MOL      0.093959
    151 H71         9.4210   -3.8220    2.8490 hc        1 MOL      0.093959
    152 N14         6.8940   -3.0600    0.0560 n         1 MOL      0.038597
    153 C49         6.1370   -3.8720   -0.8360 c3        1 MOL     -0.155521
    154 C50         6.7390   -3.8160   -2.2570 c         1 MOL      0.531307
    155 O20         6.7870   -4.7930   -2.9030 o         1 MOL     -0.517941
    156 C51         4.6550   -3.3750   -0.7950 c3        1 MOL      0.110820
    157 C52         4.2520   -2.1170   -1.6960 c3        1 MOL      0.024624
    158 C53         3.0260   -1.5440   -1.0590 c         1 MOL      0.425982
    159 O21         2.0440   -2.3160   -0.8890 o         1 MOL     -0.601951
    160 O22         2.8930   -0.3390   -0.7320 o         1 MOL     -0.601951
    161 H72         6.4490   -2.2120    0.3620 hn        1 MOL     -0.027822
    162 H73         6.1600   -4.8950   -0.4620 h1        1 MOL      0.115385
    163 H74         4.2230   -3.3790    0.2070 hc        1 MOL      0.005016
    164 H75         4.0450   -4.1760   -1.2340 hc        1 MOL      0.005016
    165 H76         4.1320   -2.3680   -2.7480 hc        1 MOL     -0.019873
    166 H77         5.0040   -1.3310   -1.6230 hc        1 MOL     -0.019873
    167 N15         7.3720   -2.7010   -2.6380 n         1 MOL     -0.237996
    168 C54         7.9060   -2.6090   -3.9810 c3        1 MOL     -0.303639
    169 H78         8.5250   -3.4820   -4.1860 h1        1 MOL      0.119587
    170 H79         7.0850   -2.5700   -4.6960 h1        1 MOL      0.119587
    171 H80         8.5100   -1.7060   -4.0710 h1        1 MOL      0.119587
    172 H81         7.4490   -1.8950   -2.0360 hn        1 MOL      0.194773
    173 Ca1         0.5480   -0.5310    0.3830 Ca        1 MOL      1.690406
    174 O23        -0.4780    0.3010   -1.9750 oh        1 MOL     -0.885851
    175 H82        -1.0050    1.0880   -2.1080 ho        1 MOL      0.432917
    176 H83        -0.4760   -0.1390   -2.8200 ho        1 MOL      0.432917
    177 O24        -2.0580    0.0470    0.7770 oh        1 MOL     -0.885851
    178 H84        -2.6400   -0.4460    1.3440 ho        1 MOL      0.432917
    179 H85        -2.5560    0.1700   -0.0330 ho        1 MOL      0.432917
    180 O25         0.0080    0.6610    2.8170 oh        1 MOL     -0.885851
    181 H86         0.7060    0.7590    3.4760 ho        1 MOL      0.432917
    182 H87        -0.6690    0.1560    3.2650 ho        1 MOL      0.432917
    183 O26         2.7080   -0.5570    1.9820 oh        1 MOL     -0.885851
    184 H88         2.7140   -0.7380    2.9260 ho        1 MOL      0.432917
    185 H89         3.5930   -0.7720    1.6930 ho        1 MOL      0.432917
@<TRIPOS>BOND
     1    1    2 1   
     2    1    4 1   
     3    1    5 1   
     4    1    6 1   
     5    2    3 2   
     6    2    7 1   
     7    7    8 1   
     8    7   15 1   
     9    8    9 1   
    10    8   11 1   
    11    8   16 1   
    12    9   10 2   
    13    9   19 1   
    14   11   12 1   
    15   11   17 1   
    16   11   18 1   
    17   12   13 1   
    18   12   14 1   
    19   19   20 1   
    20   19   28 1   
    21   20   21 1   
    22   20   23 1   
    23   20   29 1   
    24   21   22 2   
    25   21   41 1   
    26   23   24 1   
    27   23   30 1   
    28   23   31 1   
    29   24   25 1   
    30   24   32 1   
    31   24   33 1   
    32   25   26 1   
    33   25   34 1   
    34   25   35 1   
    35   26   27 1   
    36   26   36 1   
    37   26   37 1   
    38   27   38 1   
    39   27   39 1   
    40   27   40 1   
    41   41   42 1   
    42   41   49 1   
    43   42   43 1   
    44   42   45 1   
    45   42   50 1   
    46   43   44 2   
    47   43   53 1   
    48   45   46 1   
    49   45   51 1   
    50   45   52 1   
    51   46   47 1   
    52   46   48 1   
    53   53   54 1   
    54   53   57 1   
    55   54   55 1   
    56   54   58 1   
    57   54   59 1   
    58   55   56 2   
    59   55   60 1   
    60   60   61 1   
    61   60   68 1   
    62   61   62 1   
    63   61   64 1   
    64   61   69 1   
    65   62   63 2   
    66   62   74 1   
    67   64   65 1   
    68   64   70 1   
    69   64   71 1   
    70   65   66 1   
    71   65   67 2   
    72   66   72 1   
    73   66   73 1   
    74   74   75 1   
    75   74   78 1   
    76   75   76 1   
    77   75   79 1   
    78   75   80 1   
    79   76   77 2   
    80   76   81 1   
    81   81   82 1   
    82   81   93 1   
    83   82   83 1   
    84   82   85 1   
    85   82   94 1   
    86   83   84 2   
    87   83  102 1   
    88   85   86 1   
    89   85   95 1   
    90   85   96 1   
    91   86   87 ar  
    92   86   88 ar  
    93   87   89 ar  
    94   87   97 1   
    95   88   90 ar  
    96   88   98 1   
    97   89   91 ar  
    98   89   99 1   
    99   90   91 ar  
   100   90  100 1   
   101   91   92 1   
   102   92  101 1   
   103  102  103 1   
   104  102  110 1   
   105  103  104 1   
   106  103  106 1   
   107  103  111 1   
   108  104  105 2   
   109  104  121 1   
   110  106  107 1   
   111  106  108 1   
   112  106  112 1   
   113  107  109 1   
   114  107  113 1   
   115  107  114 1   
   116  108  115 1   
   117  108  116 1   
   118  108  117 1   
   119  109  118 1   
   120  109  119 1   
   121  109  120 1   
   122  121  122 1   
   123  121  127 1   
   124  122  123 1   
   125  122  125 1   
   126  122  128 1   
   127  123  124 2   
   128  123  132 1   
   129  125  126 1   
   130  125  129 1   
   131  125  130 1   
   132  126  131 1   
   133  132  133 1   
   134  132  137 1   
   135  133  134 1   
   136  133  136 1   
   137  133  138 1   
   138  134  135 2   
   139  134  142 1   
   140  136  139 1   
   141  136  140 1   
   142  136  141 1   
   143  142  143 1   
   144  142  147 1   
   145  143  144 1   
   146  143  146 1   
   147  143  148 1   
   148  144  145 2   
   149  144  152 1   
   150  146  149 1   
   151  146  150 1   
   152  146  151 1   
   153  152  153 1   
   154  152  161 1   
   155  153  154 1   
   156  153  156 1   
   157  153  162 1   
   158  154  155 2   
   159  154  167 1   
   160  156  157 1   
   161  156  163 1   
   162  156  164 1   
   163  157  158 1   
   164  157  165 1   
   165  157  166 1   
   166  158  159 1   
   167  158  160 1   
   168  167  168 1   
   169  167  172 1   
   170  168  169 1   
   171  168  170 1   
   172  168  171 1   
   173  174  175 1   
   174  174  176 1   
   175  177  178 1   
   176  177  179 1   
   177  180  181 1   
   178  180  182 1   
   179  183  184 1   
   180  183  185 1   
@<TRIPOS>SUBSTRUCTURE
     1 MOL         1 TEMP              0 ****  ****    0 ROOT
