@<TRIPOS>MOLECULE
MOL
  181   177     1     0     0
SMALL
resp


@<TRIPOS>ATOM
      1 C1          5.6470   -3.5240    4.9870 c3        1 MOL     -0.376202
      2 C2          6.3920   -2.5970    3.9780 c         1 MOL      0.684649
      3 O1          5.8050   -1.6590    3.3610 o         1 MOL     -0.587945
      4 H1          4.6810   -3.0860    5.2370 hc        1 MOL      0.089976
      5 H2          5.4950   -4.5040    4.5360 hc        1 MOL      0.089976
      6 H3          6.2430   -3.6290    5.8940 hc        1 MOL      0.089976
      7 N1          7.6480   -2.7870    3.8070 n         1 MOL     -0.625298
      8 C3          8.4740   -1.8460    2.8890 c3        1 MOL      0.340796
      9 C4          8.4980   -2.1530    1.4080 c         1 MOL      0.636443
     10 O2          8.3790   -3.3520    1.0500 o         1 MOL     -0.616179
     11 C5          9.8680   -1.8390    3.4350 c3        1 MOL     -0.259254
     12 C6         10.6880   -0.6090    2.9180 c         1 MOL      0.714675
     13 O3         10.1190    0.3460    2.3480 o         1 MOL     -0.716933
     14 O4         11.9080   -0.5710    3.1830 o         1 MOL     -0.716933
     15 H4          8.1390   -3.4910    4.3350 hn        1 MOL      0.316676
     16 H5          8.0410   -0.8480    2.9830 h1        1 MOL      0.014391
     17 H6         10.4580   -2.7480    3.2730 hc        1 MOL      0.022082
     18 H7          9.7980   -1.8310    4.5240 hc        1 MOL      0.022082
     19 N2          8.6380   -1.1330    0.5060 n         1 MOL     -0.754735
     20 C7          8.2880   -1.3180   -0.9790 c3        1 MOL      0.564436
     21 C8          6.8610   -0.8070   -1.2430 c         1 MOL      0.471127
     22 O5          6.2380   -0.0190   -0.5330 o         1 MOL     -0.511390
     23 C9          9.2290   -0.4900   -1.8350 c3        1 MOL     -0.340213
     24 H8          8.9960   -0.2110    0.7320 hn        1 MOL      0.356818
     25 H9          8.4020   -2.3200   -1.3910 h1        1 MOL     -0.045802
     26 H10         8.8500   -0.3850   -2.8490 hc        1 MOL      0.070530
     27 H11         9.1970    0.4990   -1.3590 hc        1 MOL      0.070530
     28 H12        10.2290   -0.9220   -1.7420 hc        1 MOL      0.070530
     29 N3          6.3310   -1.2110   -2.4460 n         1 MOL     -0.667877
     30 C10         4.8880   -0.9710   -2.8850 c3        1 MOL      0.372960
     31 C11         4.5660    0.3800   -3.5240 c         1 MOL      0.321683
     32 O6          3.9960    0.4840   -4.6710 o         1 MOL     -0.510181
     33 C12         4.2940   -2.1080   -3.7460 c3        1 MOL     -0.134834
     34 C13         2.7290   -2.1160   -3.7860 c         1 MOL      0.707205
     35 O7          2.1040   -1.6060   -2.8090 o         1 MOL     -0.764494
     36 O8          2.0760   -2.8410   -4.5660 o         1 MOL     -0.764494
     37 H13         6.8460   -1.9520   -2.9040 hn        1 MOL      0.288841
     38 H14         4.2740   -1.0240   -1.9780 h1        1 MOL      0.073742
     39 H15         4.5570   -3.0510   -3.2690 hc        1 MOL      0.012904
     40 H16         4.6240   -2.0400   -4.7880 hc        1 MOL      0.012904
     41 N4          4.9100    1.4640   -2.8680 n         1 MOL     -0.292028
     42 C14         4.8490    2.8270   -3.3810 c3        1 MOL     -0.123223
     43 C15         3.4850    3.3150   -3.4510 c         1 MOL      0.586055
     44 O9          3.3800    4.3980   -3.9740 o         1 MOL     -0.591848
     45 H17         5.3590    1.3960   -1.9590 hn        1 MOL      0.261492
     46 H18         5.3240    2.8860   -4.3520 h1        1 MOL      0.102811
     47 H19         5.4710    3.4790   -2.7700 h1        1 MOL      0.102811
     48 N5          2.3880    2.6050   -3.0770 n         1 MOL     -0.325170
     49 C16         1.0000    3.0380   -3.3400 c3        1 MOL      0.064239
     50 C17         0.6370    4.2090   -2.4200 c         1 MOL      0.588654
     51 O10         0.9080    4.2400   -1.2360 o         1 MOL     -0.542318
     52 C18         0.0980    1.7850   -3.1040 c3        1 MOL     -0.162143
     53 C19        -1.3180    1.9050   -3.6570 c         1 MOL      0.605186
     54 N6         -2.3060    1.1730   -3.2180 n         1 MOL     -0.736418
     55 O11        -1.5450    2.6650   -4.6050 o         1 MOL     -0.603004
     56 H20         2.4270    1.7750   -2.5120 hn        1 MOL      0.193173
     57 H21         0.9290    3.3370   -4.3850 h1        1 MOL      0.042298
     58 H22         0.0140    1.6380   -2.0330 hc        1 MOL      0.104198
     59 H23         0.6520    0.9360   -3.4930 hc        1 MOL      0.104198
     60 H24        -1.9250    0.4150   -2.6690 hn        1 MOL      0.336428
     61 H25        -3.2260    1.2090   -3.6290 hn        1 MOL      0.336428
     62 N7         -0.0990    5.1810   -2.9330 n         1 MOL     -0.514934
     63 C20        -0.4630    6.4310   -2.1790 c3        1 MOL      0.000144
     64 C21        -1.6140    6.2840   -1.0730 c         1 MOL      0.532177
     65 O12        -2.6040    5.5530   -1.1670 o         1 MOL     -0.496282
     66 H26        -0.5490    5.1650   -3.8260 hn        1 MOL      0.312566
     67 H27        -0.7220    7.2490   -2.8490 h1        1 MOL      0.067354
     68 H28         0.4210    6.7820   -1.6630 h1        1 MOL      0.067354
     69 N8         -1.4490    7.1230   -0.0250 n         1 MOL     -0.348294
     70 C22        -2.3410    7.3870    1.1030 c3        1 MOL     -0.478000
     71 C23        -2.5870    6.2090    2.0170 c         1 MOL      0.525465
     72 O13        -3.5240    6.2930    2.8310 o         1 MOL     -0.582360
     73 C24        -1.7860    8.6740    1.9400 c3        1 MOL      0.580138
     74 C25        -0.6030    8.2390    2.8020 c3        1 MOL     -0.390779
     75 O14        -1.4760    9.8020    1.2100 oh        1 MOL     -0.620481
     76 H29        -0.6170    7.6830   -0.0450 hn        1 MOL      0.202919
     77 H30        -3.3290    7.5570    0.6690 h1        1 MOL      0.199484
     78 H31        -2.6280    8.9420    2.5760 h1        1 MOL      0.013043
     79 H32        -0.7780    9.4860    0.6370 ho        1 MOL      0.378568
     80 H33         0.1620    7.6900    2.2490 hc        1 MOL      0.089462
     81 H34        -0.1170    9.1390    3.2000 hc        1 MOL      0.089462
     82 H35        -0.9750    7.6930    3.6650 hc        1 MOL      0.089462
     83 N9         -1.7620    5.2030    1.9650 n         1 MOL     -0.079941
     84 C26        -1.8720    3.8570    2.6050 c3        1 MOL     -0.047456
     85 C27        -1.4030    2.8440    1.6730 c         1 MOL      0.490774
     86 O15        -0.4810    3.0580    0.8810 o         1 MOL     -0.399790
     87 C28        -1.0820    3.7090    3.9910 c3        1 MOL      0.067272
     88 C29         0.4780    3.7950    4.1360 c3        1 MOL     -0.098684
     89 C30        -1.8000    4.6630    4.9960 c3        1 MOL     -0.142068
     90 C31         0.9960    5.2290    3.7960 c3        1 MOL     -0.019392
     91 H36        -1.1420    5.1670    1.1750 hn        1 MOL      0.153813
     92 H37        -2.9410    3.7360    2.7750 h1        1 MOL      0.058640
     93 H38        -1.4670    2.7330    4.2990 hc        1 MOL      0.003464
     94 H39         0.8530    3.0620    3.4140 hc        1 MOL      0.052898
     95 H40         0.7680    3.4670    5.1330 hc        1 MOL      0.052898
     96 H41        -1.6900    5.7290    4.8080 hc        1 MOL      0.032908
     97 H42        -2.8590    4.4160    4.9950 hc        1 MOL      0.032908
     98 H43        -1.4570    4.4730    6.0120 hc        1 MOL      0.032908
     99 H44         0.8620    5.5630    2.7610 hc        1 MOL      0.014385
    100 H45         0.7130    5.9950    4.5270 hc        1 MOL      0.014385
    101 H46         2.0750    5.1620    3.8820 hc        1 MOL      0.014385
    102 N10        -1.9420    1.6220    1.7890 n         1 MOL     -0.555446
    103 C32        -1.8660    0.7330    0.6530 c3        1 MOL      0.100207
    104 C33        -3.1230   -0.1630    0.5720 c         1 MOL      0.436493
    105 O16        -3.0890   -1.3210    0.8630 o         1 MOL     -0.415022
    106 C34        -0.5930   -0.0770    0.7040 c3        1 MOL     -0.181402
    107 C35        -0.4880   -1.0080   -0.5130 c         1 MOL      0.863320
    108 O17        -1.0740   -0.8330   -1.5760 o         1 MOL     -0.771264
    109 O18         0.1700   -2.0390   -0.4480 o         1 MOL     -0.771264
    110 H47        -2.6750    1.4280    2.4570 hn        1 MOL      0.341371
    111 H48        -1.8010    1.2540   -0.3040 h1        1 MOL      0.040411
    112 H49        -0.6140   -0.7390    1.5780 hc        1 MOL      0.080504
    113 H50         0.2640    0.5970    0.7420 hc        1 MOL      0.080504
    114 N11        -4.2460    0.3500    0.1000 n         1 MOL     -0.626262
    115 C36        -5.4690   -0.5140   -0.1270 c3        1 MOL      0.537037
    116 C37        -5.8440   -1.4780    1.0620 c         1 MOL      0.263800
    117 O19        -5.8220   -1.0190    2.2260 o         1 MOL     -0.544689
    118 C38        -6.6900    0.4260   -0.4280 c3        1 MOL     -0.428127
    119 C39        -8.0000   -0.3820   -0.8180 ca        1 MOL      0.208844
    120 C40        -8.3650   -0.4410   -2.1820 ca        1 MOL     -0.215966
    121 C41        -8.7190   -1.0720    0.1420 ca        1 MOL     -0.215966
    122 C42        -9.5590   -1.1250   -2.5940 ca        1 MOL     -0.096896
    123 C43        -9.7700   -1.8760   -0.2990 ca        1 MOL     -0.096896
    124 C44       -10.2670   -1.8520   -1.6590 ca        1 MOL     -0.134417
    125 H51        -4.3800    1.3290   -0.1120 hn        1 MOL      0.325540
    126 H52        -5.2660   -1.0000   -1.0760 h1        1 MOL     -0.095490
    127 H53        -6.4030    1.0750   -1.2590 hc        1 MOL      0.127295
    128 H54        -6.8980    1.0190    0.4510 hc        1 MOL      0.127295
    129 H55        -7.8030    0.0760   -2.9500 ha        1 MOL      0.130718
    130 H56        -8.4540   -1.0150    1.1950 ha        1 MOL      0.130718
    131 H57        -9.8180   -1.1370   -3.6450 ha        1 MOL      0.107503
    132 H58       -10.2820   -2.5270    0.3840 ha        1 MOL      0.107503
    133 H59       -11.1070   -2.4670   -1.9380 ha        1 MOL      0.112077
    134 N12        -6.0620   -2.7780    0.8150 n         1 MOL      0.130265
    135 C45        -6.3040   -3.6580    1.9640 c3        1 MOL      0.015261
    136 C46        -4.9990   -4.0500    2.7780 c         1 MOL      0.345537
    137 O20        -5.1180   -4.7700    3.8230 o         1 MOL     -0.566585
    138 C47        -6.9960   -4.8340    1.3220 c3        1 MOL     -0.151033
    139 C48        -6.4140   -4.9290   -0.0800 c3        1 MOL     -0.002181
    140 C49        -6.0300   -3.4670   -0.4800 c3        1 MOL     -0.023377
    141 H60        -6.9880   -3.2210    2.6870 h1        1 MOL      0.060503
    142 H61        -6.7780   -5.7600    1.8690 hc        1 MOL      0.054636
    143 H62        -8.0740   -4.6940    1.2270 hc        1 MOL      0.054636
    144 H63        -5.4680   -5.4670   -0.0590 hc        1 MOL      0.022318
    145 H64        -7.0470   -5.3450   -0.8610 hc        1 MOL      0.022318
    146 H65        -5.0200   -3.3570   -0.8900 h1        1 MOL      0.006990
    147 H66        -6.7680   -3.0630   -1.1770 h1        1 MOL      0.006990
    148 N13        -3.7960   -3.7090    2.3610 n         1 MOL      0.029546
    149 C50        -2.5470   -4.2670    2.9160 c3        1 MOL     -0.363817
    150 C51        -1.9670   -3.5100    4.1420 c         1 MOL      0.476492
    151 O21        -0.9770   -4.0310    4.6730 o         1 MOL     -0.510792
    152 C52        -1.5280   -4.5800    1.8290 c3        1 MOL      0.179356
    153 C53        -2.0500   -5.2240    0.5540 c3        1 MOL     -0.065201
    154 C54        -0.9020   -5.3990   -0.4650 c         1 MOL      0.673296
    155 O22         0.1920   -5.8600   -0.0410 o         1 MOL     -0.712446
    156 O23        -1.0890   -5.1240   -1.6850 o         1 MOL     -0.712446
    157 H67        -3.7640   -3.0670    1.5890 hn        1 MOL      0.078883
    158 H68        -2.7820   -5.2710    3.2690 h1        1 MOL      0.167713
    159 H69        -0.7070   -5.1400    2.2590 hc        1 MOL      0.020529
    160 H70        -1.0800   -3.6410    1.4970 hc        1 MOL      0.020529
    161 H71        -2.7650   -4.4870    0.1740 hc        1 MOL     -0.007614
    162 H72        -2.5910   -6.1500    0.7360 hc        1 MOL     -0.007614
    163 N14        -2.5180   -2.3730    4.5760 n         1 MOL     -0.221553
    164 C55        -2.1400   -1.6700    5.7880 c3        1 MOL     -0.122619
    165 H73        -2.9280   -1.7820    6.5320 h1        1 MOL      0.069767
    166 H74        -1.2120   -2.0880    6.1770 h1        1 MOL      0.069767
    167 H75        -1.9980   -0.6110    5.5660 h1        1 MOL      0.069767
    168 H76        -3.3890   -2.1130    4.1450 hn        1 MOL      0.221207
    169 Ca1        -0.0770   -2.9520   -2.9240 Ca        1 MOL      1.770079
    170 O24        -0.7490   -1.6890   -5.2870 oh        1 MOL     -0.867768
    171 H77        -1.5610   -1.3280   -5.6520 ho        1 MOL      0.421772
    172 H78        -0.1290   -1.6560   -6.0070 ho        1 MOL      0.421772
    173 O25        -1.0170   -4.5710   -4.8170 oh        1 MOL     -0.867768
    174 H79        -1.0820   -4.2980   -5.7310 ho        1 MOL      0.421772
    175 H80        -1.1610   -5.5130   -4.8420 ho        1 MOL      0.421772
    176 O26         1.9140   -4.6790   -1.3980 oh        1 MOL     -0.867768
    177 H81         2.7480   -5.0540   -1.1110 ho        1 MOL      0.421772
    178 H82         1.2590   -5.1060   -0.8540 ho        1 MOL      0.421772
    179 O27        -2.7450   -2.5730   -2.7030 oh        1 MOL     -0.867768
    180 H83        -2.8080   -1.7780   -2.1680 ho        1 MOL      0.421772
    181 H84        -3.5270   -2.5540   -3.2560 ho        1 MOL      0.421772
@<TRIPOS>BOND
     1    1    2 1   
     2    1    4 1   
     3    1    5 1   
     4    1    6 1   
     5    2    3 2   
     6    2    7 1   
     7    7    8 1   
     8    7   15 1   
     9    8    9 1   
    10    8   11 1   
    11    8   16 1   
    12    9   10 2   
    13    9   19 1   
    14   11   12 1   
    15   11   17 1   
    16   11   18 1   
    17   12   13 1   
    18   12   14 1   
    19   19   20 1   
    20   19   24 1   
    21   20   21 1   
    22   20   23 1   
    23   20   25 1   
    24   21   22 2   
    25   21   29 1   
    26   23   26 1   
    27   23   27 1   
    28   23   28 1   
    29   29   30 1   
    30   29   37 1   
    31   30   31 1   
    32   30   33 1   
    33   30   38 1   
    34   31   32 2   
    35   31   41 1   
    36   33   34 1   
    37   33   39 1   
    38   33   40 1   
    39   34   35 1   
    40   34   36 1   
    41   41   42 1   
    42   41   45 1   
    43   42   43 1   
    44   42   46 1   
    45   42   47 1   
    46   43   44 2   
    47   43   48 1   
    48   48   49 1   
    49   48   56 1   
    50   49   50 1   
    51   49   52 1   
    52   49   57 1   
    53   50   51 2   
    54   50   62 1   
    55   52   53 1   
    56   52   58 1   
    57   52   59 1   
    58   53   54 1   
    59   53   55 2   
    60   54   60 1   
    61   54   61 1   
    62   62   63 1   
    63   62   66 1   
    64   63   64 1   
    65   63   67 1   
    66   63   68 1   
    67   64   65 2   
    68   64   69 1   
    69   69   70 1   
    70   69   76 1   
    71   70   71 1   
    72   70   73 1   
    73   70   77 1   
    74   71   72 2   
    75   71   83 1   
    76   73   74 1   
    77   73   75 1   
    78   73   78 1   
    79   74   80 1   
    80   74   81 1   
    81   74   82 1   
    82   75   79 1   
    83   83   84 1   
    84   83   91 1   
    85   84   85 1   
    86   84   87 1   
    87   84   92 1   
    88   85   86 2   
    89   85  102 1   
    90   87   88 1   
    91   87   89 1   
    92   87   93 1   
    93   88   90 1   
    94   88   94 1   
    95   88   95 1   
    96   89   96 1   
    97   89   97 1   
    98   89   98 1   
    99   90   99 1   
   100   90  100 1   
   101   90  101 1   
   102  102  103 1   
   103  102  110 1   
   104  103  104 1   
   105  103  106 1   
   106  103  111 1   
   107  104  105 2   
   108  104  114 1   
   109  106  107 1   
   110  106  112 1   
   111  106  113 1   
   112  107  108 1   
   113  107  109 1   
   114  114  115 1   
   115  114  125 1   
   116  115  116 1   
   117  115  118 1   
   118  115  126 1   
   119  116  117 2   
   120  116  134 1   
   121  118  119 1   
   122  118  127 1   
   123  118  128 1   
   124  119  120 ar  
   125  119  121 ar  
   126  120  122 ar  
   127  120  129 1   
   128  121  123 ar  
   129  121  130 1   
   130  122  124 ar  
   131  122  131 1   
   132  123  124 ar  
   133  123  132 1   
   134  124  133 1   
   135  134  135 1   
   136  134  140 1   
   137  135  136 1   
   138  135  138 1   
   139  135  141 1   
   140  136  137 2   
   141  136  148 1   
   142  138  139 1   
   143  138  142 1   
   144  138  143 1   
   145  139  140 1   
   146  139  144 1   
   147  139  145 1   
   148  140  146 1   
   149  140  147 1   
   150  148  149 1   
   151  148  157 1   
   152  149  150 1   
   153  149  152 1   
   154  149  158 1   
   155  150  151 2   
   156  150  163 1   
   157  152  153 1   
   158  152  159 1   
   159  152  160 1   
   160  153  154 1   
   161  153  161 1   
   162  153  162 1   
   163  154  155 1   
   164  154  156 1   
   165  163  164 1   
   166  163  168 1   
   167  164  165 1   
   168  164  166 1   
   169  164  167 1   
   170  170  171 1   
   171  170  172 1   
   172  173  174 1   
   173  173  175 1   
   174  176  177 1   
   175  176  178 1   
   176  179  180 1   
   177  179  181 1   
@<TRIPOS>SUBSTRUCTURE
     1 MOL         1 TEMP              0 ****  ****    0 ROOT
