@<TRIPOS>MOLECULE
MOL
  178   175     1     0     0
SMALL
resp


@<TRIPOS>ATOM
      1 C1          2.4990   -2.1550    4.6580 c3        1 MOL     -0.313548
      2 C2          3.4380   -1.2670    3.7880 c         1 MOL      0.587596
      3 O1          3.4200   -1.3800    2.5550 o         1 MOL     -0.503029
      4 H1          1.6780   -1.5480    5.0410 hc        1 MOL      0.077184
      5 H2          2.0980   -2.9660    4.0510 hc        1 MOL      0.077184
      6 H3          3.0620   -2.5700    5.4940 hc        1 MOL      0.077184
      7 N1          4.4860   -0.6980    4.3800 n         1 MOL     -0.447267
      8 C3          5.5380    0.1850    3.7920 c3        1 MOL      0.046785
      9 C4          6.3740   -0.5170    2.7030 c         1 MOL      0.506027
     10 O2          6.4730    0.0640    1.5840 o         1 MOL     -0.432806
     11 C5          6.4180    0.7760    4.9300 c3        1 MOL     -0.149988
     12 C6          7.5400    1.7410    4.4370 c         1 MOL      0.664234
     13 O3          7.1900    2.7480    3.7550 o         1 MOL     -0.692994
     14 O4          8.7660    1.5100    4.7270 o         1 MOL     -0.692994
     15 H4          4.2710   -0.6790    5.3680 hn        1 MOL      0.260991
     16 H5          5.0840    1.0780    3.3610 h1        1 MOL      0.054676
     17 H6          6.8380   -0.0590    5.4900 hc        1 MOL     -0.015983
     18 H7          5.7320    1.1020    5.7210 hc        1 MOL     -0.015983
     19 N2          6.8120   -1.7140    2.9970 n         1 MOL     -0.359505
     20 C7          7.6220   -2.5160    2.0950 c3        1 MOL      0.213163
     21 C8          7.0850   -2.5300    0.6250 c         1 MOL      0.435044
     22 O5          7.8150   -2.5360   -0.3690 o         1 MOL     -0.534421
     23 C9          9.0710   -1.9970    2.2050 c3        1 MOL     -0.333845
     24 H8          6.3620   -2.1250    3.8060 hn        1 MOL      0.229091
     25 H9          7.5720   -3.5590    2.4140 h1        1 MOL      0.017800
     26 H10         9.3290   -1.7310    3.2320 hc        1 MOL      0.088238
     27 H11         9.7240   -2.7950    1.8540 hc        1 MOL      0.088238
     28 H12         9.1980   -1.1230    1.5640 hc        1 MOL      0.088238
     29 N3          5.7560   -2.7260    0.4890 n         1 MOL     -0.472911
     30 C10         4.9040   -2.9110   -0.7410 c3        1 MOL      0.347464
     31 C11         5.0590   -1.7000   -1.7390 c         1 MOL      0.314241
     32 O6          4.8450   -1.8420   -2.9440 o         1 MOL     -0.540321
     33 C12         5.2380   -4.1950   -1.4400 c3        1 MOL     -0.339998
     34 C13         4.0810   -4.6950   -2.4070 c         1 MOL      0.817249
     35 O7          4.4220   -5.3680   -3.3860 o         1 MOL     -0.734231
     36 O8          2.9100   -4.5140   -2.1410 o         1 MOL     -0.734231
     37 H13         5.3510   -2.8360    1.4080 hn        1 MOL      0.240726
     38 H14         3.8590   -2.9150   -0.4500 h1        1 MOL     -0.011938
     39 H15         5.4190   -5.0620   -0.8100 hc        1 MOL      0.074241
     40 H16         6.1480   -4.0660   -2.0280 hc        1 MOL      0.074241
     41 N4          5.5310   -0.5670   -1.3400 n         1 MOL      0.130467
     42 C14         6.1810    0.4420   -2.2140 c3        1 MOL     -0.068606
     43 C15         5.1930    1.2520   -2.9970 c         1 MOL      0.572656
     44 O9          5.5230    2.2730   -3.6230 o         1 MOL     -0.597822
     45 H17         5.7370   -0.4500   -0.3520 hn        1 MOL     -0.011756
     46 H18         6.8980    0.0200   -2.9310 h1        1 MOL      0.072004
     47 H19         6.8150    1.0720   -1.5800 h1        1 MOL      0.072004
     48 N5          3.9030    0.9130   -2.9230 n         1 MOL     -0.272345
     49 C16         2.8380    1.8090   -3.4530 c3        1 MOL     -0.033333
     50 C17         2.8340    3.2160   -2.8350 c         1 MOL      0.496493
     51 O10         3.1310    3.3780   -1.6720 o         1 MOL     -0.496196
     52 C18         1.4500    1.2050   -3.1250 c3        1 MOL     -0.353655
     53 C19         1.2400   -0.1680   -3.7570 c         1 MOL      0.651804
     54 N6          0.5910   -0.3700   -4.8790 n         1 MOL     -0.735476
     55 O11         1.5010   -1.1940   -3.1260 o         1 MOL     -0.547127
     56 H20         3.6340    0.2230   -2.2360 hn        1 MOL      0.141556
     57 H21         2.9030    1.9470   -4.5270 h1        1 MOL      0.046011
     58 H22         0.6940    1.9020   -3.4990 hc        1 MOL      0.159904
     59 H23         1.3070    1.1850   -2.0500 hc        1 MOL      0.159904
     60 H24         0.3030    0.3730   -5.4950 hn        1 MOL      0.353048
     61 H25         0.4350   -1.3650   -4.9370 hn        1 MOL      0.353048
     62 N7          2.4800    4.2520   -3.5990 n         1 MOL     -0.332205
     63 C20         2.3570    5.6030   -3.0440 c3        1 MOL     -0.211321
     64 C21         0.8560    5.8910   -2.6400 c         1 MOL      0.517198
     65 O12        -0.0420    5.2910   -3.2510 o         1 MOL     -0.512867
     66 H26         2.2220    4.0600   -4.5610 hn        1 MOL      0.260179
     67 H27         2.6680    6.3020   -3.8160 h1        1 MOL      0.130628
     68 H28         3.0780    5.7040   -2.2290 h1        1 MOL      0.130628
     69 N8          0.5730    6.7160   -1.6420 n         1 MOL     -0.514390
     70 C22        -0.7930    7.1680   -1.2110 c3        1 MOL      0.006604
     71 C23        -1.4350    6.0690   -0.3420 c         1 MOL      0.507056
     72 O13        -2.6210    6.0920   -0.0670 o         1 MOL     -0.575346
     73 C24        -0.7930    8.5050   -0.5240 c3        1 MOL      0.318360
     74 C25        -2.1400    9.1340   -0.1640 c3        1 MOL     -0.384822
     75 O14         0.0740    8.6600    0.6380 oh        1 MOL     -0.651882
     76 H29         1.4040    7.1830   -1.2950 hn        1 MOL      0.281875
     77 H30        -1.4470    7.2520   -2.0900 h1        1 MOL      0.109176
     78 H31        -0.3970    9.2140   -1.2530 h1        1 MOL     -0.004375
     79 H32         0.0680    9.5800    0.8890 ho        1 MOL      0.414676
     80 H33        -2.4950    8.5880    0.7130 hc        1 MOL      0.102502
     81 H34        -2.0670   10.1720    0.1570 hc        1 MOL      0.102502
     82 H35        -2.8630    9.0000   -0.9630 hc        1 MOL      0.102502
     83 N9         -0.6090    5.2140    0.2380 n         1 MOL     -0.107417
     84 C26        -1.0750    4.1010    1.0610 c3        1 MOL     -0.269892
     85 C27        -1.2560    2.8980    0.1930 c         1 MOL      0.499235
     86 O15        -0.7120    2.8120   -0.9220 o         1 MOL     -0.480467
     87 C28        -0.1410    3.8850    2.2610 c3        1 MOL      0.245908
     88 C29         1.2080    3.3720    1.7950 c3        1 MOL     -0.389179
     89 C30        -0.1910    5.0910    3.1750 c3        1 MOL     -0.151519
     90 C31         2.1340    3.1180    2.9630 c3        1 MOL     -0.156431
     91 H36         0.3770    5.3760    0.0680 hn        1 MOL      0.232937
     92 H37        -2.0590    4.3510    1.4610 h1        1 MOL      0.118243
     93 H38        -0.5810    3.0740    2.8430 hc        1 MOL     -0.032048
     94 H39         1.6330    4.1100    1.1190 hc        1 MOL      0.193802
     95 H40         1.0660    2.4040    1.3120 hc        1 MOL      0.193802
     96 H41        -1.2060    5.4880    3.2590 hc        1 MOL      0.030242
     97 H42         0.2130    4.8770    4.1550 hc        1 MOL      0.030242
     98 H43         0.4130    5.8670    2.7010 hc        1 MOL      0.030242
     99 H44         1.6660    2.3050    3.5160 hc        1 MOL      0.067557
    100 H45         3.0940    2.7210    2.6370 hc        1 MOL      0.067557
    101 H46         2.3680    3.9710    3.6000 hc        1 MOL      0.067557
    102 N10        -2.0840    1.9370    0.5900 n         1 MOL     -0.433427
    103 C32        -2.1870    0.6490   -0.0690 c3        1 MOL      0.058284
    104 C33        -3.6000    0.1210   -0.0590 c         1 MOL      0.594112
    105 O16        -3.7520   -1.1320   -0.0920 o         1 MOL     -0.561883
    106 C34        -1.2190   -0.3550    0.6060 c3        1 MOL     -0.149190
    107 C35        -0.5070   -1.4130   -0.2840 c         1 MOL      0.588943
    108 O17         0.4810   -1.9670    0.1900 o         1 MOL     -0.672137
    109 O18        -0.7950   -1.5050   -1.5030 o         1 MOL     -0.672137
    110 H47        -2.6750    2.0200    1.4130 hn        1 MOL      0.249883
    111 H48        -1.9310    0.8390   -1.1100 h1        1 MOL      0.071966
    112 H49        -1.6210   -0.6840    1.5610 hc        1 MOL      0.063974
    113 H50        -0.3410    0.1670    0.9870 hc        1 MOL      0.063974
    114 N11        -4.6200    0.9790    0.0190 n         1 MOL     -0.475223
    115 C36        -5.9890    0.4960   -0.1730 c3        1 MOL      0.090098
    116 C37        -6.3980   -0.5900    0.8440 c         1 MOL      0.238159
    117 O19        -6.2100   -0.3430    2.0700 o         1 MOL     -0.450361
    118 C38        -6.9950    1.6620   -0.0000 c3        1 MOL     -0.087965
    119 C39        -8.4640    1.3740   -0.1880 ca        1 MOL     -0.041647
    120 C40        -8.9840    1.2180   -1.4830 ca        1 MOL     -0.077889
    121 C41        -9.2370    1.1370    0.9610 ca        1 MOL     -0.077889
    122 C42       -10.3760    0.8620   -1.6590 ca        1 MOL     -0.156289
    123 C43       -10.5450    0.6330    0.7800 ca        1 MOL     -0.156289
    124 C44       -11.0860    0.5150   -0.5250 ca        1 MOL     -0.080059
    125 H51        -4.3810    1.9400    0.2210 hn        1 MOL      0.282414
    126 H52        -6.1630    0.0440   -1.1470 h1        1 MOL      0.036841
    127 H53        -6.7290    2.4840   -0.6780 hc        1 MOL      0.077514
    128 H54        -6.8670    2.2130    0.9290 hc        1 MOL      0.077514
    129 H55        -8.4120    1.5160   -2.3520 ha        1 MOL      0.106447
    130 H56        -8.7660    1.1410    1.9320 ha        1 MOL      0.106447
    131 H57       -10.8170    0.8450   -2.6460 ha        1 MOL      0.119912
    132 H58       -11.1260    0.3450    1.6420 ha        1 MOL      0.119912
    133 H59       -12.0840    0.1170   -0.6110 ha        1 MOL      0.091848
    134 N12        -6.8940   -1.7420    0.4000 n         1 MOL      0.007781
    135 C45        -7.2910   -2.7310    1.4010 c3        1 MOL      0.138389
    136 C46        -6.0930   -3.2420    2.3120 c         1 MOL      0.240048
    137 O20        -6.1930   -3.6610    3.4510 o         1 MOL     -0.519087
    138 C47        -8.0470   -3.8240    0.6040 c3        1 MOL      0.016836
    139 C48        -8.4590   -3.1910   -0.7010 c3        1 MOL     -0.132495
    140 C49        -7.2870   -2.2410   -0.9180 c3        1 MOL      0.016412
    141 H60        -7.9430   -2.2700    2.1510 h1        1 MOL      0.026109
    142 H61        -7.3870   -4.6730    0.4180 hc        1 MOL      0.012767
    143 H62        -8.8230   -4.2520    1.2310 hc        1 MOL      0.012767
    144 H63        -8.5520   -3.8570   -1.5600 hc        1 MOL      0.045974
    145 H64        -9.4050   -2.6670   -0.5520 hc        1 MOL      0.045974
    146 H65        -6.5370   -2.8120   -1.4630 h1        1 MOL      0.036996
    147 H66        -7.6550   -1.4130   -1.5160 h1        1 MOL      0.036996
    148 N13        -4.8990   -3.2940    1.7910 n         1 MOL     -0.054606
    149 C50        -3.5940   -3.6270    2.4310 c3        1 MOL     -0.386374
    150 C51        -3.2560   -2.6230    3.5640 c         1 MOL      0.501907
    151 O21        -2.5150   -2.9480    4.4540 o         1 MOL     -0.543043
    152 C52        -2.4050   -3.8280    1.4560 c3        1 MOL      0.126652
    153 C53        -2.5690   -4.9210    0.4670 c3        1 MOL     -0.206437
    154 C54        -1.5110   -4.9150   -0.5440 c         1 MOL      0.741961
    155 O22        -0.3320   -5.0120   -0.1720 o         1 MOL     -0.750844
    156 O23        -1.8740   -4.6760   -1.7350 o         1 MOL     -0.750844
    157 H67        -4.9050   -3.1670    0.7880 hn        1 MOL      0.223883
    158 H68        -3.7760   -4.5840    2.9190 h1        1 MOL      0.162462
    159 H69        -1.5070   -4.0530    2.0290 hc        1 MOL      0.089660
    160 H70        -2.1610   -2.9670    0.8410 hc        1 MOL      0.089660
    161 H71        -3.5600   -4.8620    0.0240 hc        1 MOL      0.008379
    162 H72        -2.5000   -5.8420    1.0420 hc        1 MOL      0.008379
    163 N14        -3.9190   -1.4330    3.5640 n         1 MOL      0.009562
    164 C55        -3.7980   -0.2930    4.4390 c3        1 MOL     -0.295776
    165 H73        -3.8230   -0.6270    5.4760 h1        1 MOL      0.093858
    166 H74        -2.8540    0.2160    4.2450 h1        1 MOL      0.093858
    167 H75        -4.6260    0.3940    4.2580 h1        1 MOL      0.093858
    168 H76        -4.6690   -1.2320    2.9150 hn        1 MOL      0.098426
    169 Ca1         0.5860   -3.5170   -2.2140 Ca        1 MOL      1.690765
    170 O24         0.3040   -6.1640   -3.3250 oh        1 MOL     -0.802479
    171 H77        -0.3850   -6.5910   -2.8130 ho        1 MOL      0.382883
    172 H78         0.0960   -6.3530   -4.2360 ho        1 MOL      0.382883
    173 O25         1.9300   -3.7030   -4.6140 oh        1 MOL     -0.802479
    174 H79         1.8200   -3.7970   -5.5580 ho        1 MOL      0.382883
    175 H80         2.5870   -4.3590   -4.3840 ho        1 MOL      0.382883
    176 O26        -1.0150   -2.8580   -4.3980 oh        1 MOL     -0.802479
    177 H81        -1.1060   -3.1380   -5.3090 ho        1 MOL      0.382883
    178 H82        -1.8840   -2.9630   -4.0230 ho        1 MOL      0.382883
@<TRIPOS>BOND
     1    1    2 1   
     2    1    4 1   
     3    1    5 1   
     4    1    6 1   
     5    2    3 2   
     6    2    7 1   
     7    7    8 1   
     8    7   15 1   
     9    8    9 1   
    10    8   11 1   
    11    8   16 1   
    12    9   10 2   
    13    9   19 1   
    14   11   12 1   
    15   11   17 1   
    16   11   18 1   
    17   12   13 1   
    18   12   14 1   
    19   19   20 1   
    20   19   24 1   
    21   20   21 1   
    22   20   23 1   
    23   20   25 1   
    24   21   22 2   
    25   21   29 1   
    26   23   26 1   
    27   23   27 1   
    28   23   28 1   
    29   29   30 1   
    30   29   37 1   
    31   30   31 1   
    32   30   33 1   
    33   30   38 1   
    34   31   32 2   
    35   31   41 1   
    36   33   34 1   
    37   33   39 1   
    38   33   40 1   
    39   34   35 1   
    40   34   36 1   
    41   41   42 1   
    42   41   45 1   
    43   42   43 1   
    44   42   46 1   
    45   42   47 1   
    46   43   44 2   
    47   43   48 1   
    48   48   49 1   
    49   48   56 1   
    50   49   50 1   
    51   49   52 1   
    52   49   57 1   
    53   50   51 2   
    54   50   62 1   
    55   52   53 1   
    56   52   58 1   
    57   52   59 1   
    58   53   54 1   
    59   53   55 2   
    60   54   60 1   
    61   54   61 1   
    62   62   63 1   
    63   62   66 1   
    64   63   64 1   
    65   63   67 1   
    66   63   68 1   
    67   64   65 2   
    68   64   69 1   
    69   69   70 1   
    70   69   76 1   
    71   70   71 1   
    72   70   73 1   
    73   70   77 1   
    74   71   72 2   
    75   71   83 1   
    76   73   74 1   
    77   73   75 1   
    78   73   78 1   
    79   74   80 1   
    80   74   81 1   
    81   74   82 1   
    82   75   79 1   
    83   83   84 1   
    84   83   91 1   
    85   84   85 1   
    86   84   87 1   
    87   84   92 1   
    88   85   86 2   
    89   85  102 1   
    90   87   88 1   
    91   87   89 1   
    92   87   93 1   
    93   88   90 1   
    94   88   94 1   
    95   88   95 1   
    96   89   96 1   
    97   89   97 1   
    98   89   98 1   
    99   90   99 1   
   100   90  100 1   
   101   90  101 1   
   102  102  103 1   
   103  102  110 1   
   104  103  104 1   
   105  103  106 1   
   106  103  111 1   
   107  104  105 2   
   108  104  114 1   
   109  106  107 1   
   110  106  112 1   
   111  106  113 1   
   112  107  108 1   
   113  107  109 1   
   114  114  115 1   
   115  114  125 1   
   116  115  116 1   
   117  115  118 1   
   118  115  126 1   
   119  116  117 2   
   120  116  134 1   
   121  118  119 1   
   122  118  127 1   
   123  118  128 1   
   124  119  120 ar  
   125  119  121 ar  
   126  120  122 ar  
   127  120  129 1   
   128  121  123 ar  
   129  121  130 1   
   130  122  124 ar  
   131  122  131 1   
   132  123  124 ar  
   133  123  132 1   
   134  124  133 1   
   135  134  135 1   
   136  134  140 1   
   137  135  136 1   
   138  135  138 1   
   139  135  141 1   
   140  136  137 2   
   141  136  148 1   
   142  138  139 1   
   143  138  142 1   
   144  138  143 1   
   145  139  140 1   
   146  139  144 1   
   147  139  145 1   
   148  140  146 1   
   149  140  147 1   
   150  148  149 1   
   151  148  157 1   
   152  149  150 1   
   153  149  152 1   
   154  149  158 1   
   155  150  151 2   
   156  150  163 1   
   157  152  153 1   
   158  152  159 1   
   159  152  160 1   
   160  153  154 1   
   161  153  161 1   
   162  153  162 1   
   163  154  155 1   
   164  154  156 1   
   165  163  164 1   
   166  163  168 1   
   167  164  165 1   
   168  164  166 1   
   169  164  167 1   
   170  170  171 1   
   171  170  172 1   
   172  173  174 1   
   173  173  175 1   
   174  176  177 1   
   175  176  178 1   
@<TRIPOS>SUBSTRUCTURE
     1 MOL         1 TEMP              0 ****  ****    0 ROOT
