@<TRIPOS>MOLECULE
MOL
  198   191     1     0     0
SMALL
resp


@<TRIPOS>ATOM
      1 C1         -2.8360    6.7060    1.1560 c3        1 MOL     -0.401218
      2 C2         -4.3590    6.5050    1.0080 c         1 MOL      0.711406
      3 O1         -4.9440    7.2220    0.2330 o         1 MOL     -0.560316
      4 H1         -2.3670    5.7540    1.4070 hc        1 MOL      0.098800
      5 H2         -2.4260    7.0770    0.2170 hc        1 MOL      0.098800
      6 H3         -2.6400    7.4270    1.9490 hc        1 MOL      0.098800
      7 N1         -4.8560    5.4570    1.7080 n         1 MOL     -0.707719
      8 C3         -6.1840    4.8760    1.7130 c3        1 MOL      0.512603
      9 C4         -6.6020    4.2790    0.2930 c         1 MOL      0.217283
     10 O2         -5.8390    4.2620   -0.6400 o         1 MOL     -0.454407
     11 C5         -7.1240    5.9390    2.2780 c3        1 MOL     -0.345681
     12 C6         -8.3360    5.3220    3.0550 c         1 MOL      0.666146
     13 O3         -8.7780    4.2110    2.6320 o         1 MOL     -0.671590
     14 O4         -8.7790    5.9830    4.0380 o         1 MOL     -0.671590
     15 H4         -4.3400    5.0650    2.4870 hn        1 MOL      0.335561
     16 H5         -6.1690    4.0780    2.4560 h1        1 MOL     -0.022594
     17 H6         -7.3510    6.5690    1.4230 hc        1 MOL      0.065462
     18 H7         -6.5320    6.4230    3.0550 hc        1 MOL      0.065462
     19 N2         -7.8380    3.9440    0.2030 n         1 MOL     -0.171240
     20 C7         -8.5780    3.0750   -0.8340 c3        1 MOL      0.186482
     21 C8         -7.9260    1.6900   -1.1100 c         1 MOL      0.392486
     22 O5         -8.6810    0.7370   -1.2850 o         1 MOL     -0.535685
     23 C9         -8.9030    3.8080   -2.1500 c3        1 MOL     -0.063747
     24 C10        -9.8140    4.9680   -1.8610 c3        1 MOL      0.054333
     25 C11       -10.4100    5.6550   -3.1020 c3        1 MOL      0.102279
     26 C12       -10.5360    7.0810   -2.8490 c3        1 MOL     -0.025153
     27 N3        -10.9730    7.7440   -4.0800 n4        1 MOL     -0.279834
     28 H8         -8.4010    4.1410    1.0190 hn        1 MOL      0.118495
     29 H9         -9.5590    2.7450   -0.4790 h1        1 MOL      0.037253
     30 H10        -9.4600    3.1280   -2.7920 hc        1 MOL      0.023147
     31 H11        -7.9650    4.0710   -2.6520 hc        1 MOL      0.023147
     32 H12        -9.2660    5.6620   -1.2300 hc        1 MOL      0.003268
     33 H13       -10.6550    4.6750   -1.2370 hc        1 MOL      0.003268
     34 H14       -11.3550    5.2450   -3.4750 hc        1 MOL     -0.020948
     35 H15        -9.7060    5.4060   -3.8940 hc        1 MOL     -0.020948
     36 H16        -9.5400    7.4510   -2.5860 hx        1 MOL      0.095217
     37 H17       -11.2600    7.1260   -2.0370 hx        1 MOL      0.095217
     38 H18       -10.5050    7.5210   -4.9470 hn        1 MOL      0.305311
     39 H19       -11.9550    7.5200   -4.1100 hn        1 MOL      0.305311
     40 H20       -11.0030    8.7480   -3.9810 hn        1 MOL      0.305311
     41 N4         -6.5980    1.5890   -1.1890 n         1 MOL     -0.547495
     42 C13        -5.9680    0.2910   -1.0430 c3        1 MOL      0.701177
     43 C14        -5.3580    0.2260    0.3990 c         1 MOL      0.306547
     44 O6         -4.4650    1.0330    0.6590 o         1 MOL     -0.520086
     45 C15        -4.9380    0.0470   -2.1510 c3        1 MOL     -0.058980
     46 C16        -4.3660   -1.4120   -2.1160 c         1 MOL      0.463619
     47 O7         -5.1940   -2.3280   -1.8440 o         1 MOL     -0.611850
     48 O8         -3.2130   -1.7280   -2.4510 o         1 MOL     -0.611850
     49 H21        -6.0410    2.4190   -1.0210 hn        1 MOL      0.210477
     50 H22        -6.6460   -0.5310   -1.2520 h1        1 MOL     -0.108448
     51 H23        -4.1230    0.7720   -2.1190 hc        1 MOL     -0.011225
     52 H24        -5.3210    0.1770   -3.1560 hc        1 MOL     -0.011225
     53 N5         -5.7610   -0.7300    1.3100 n         1 MOL     -0.261611
     54 C17        -6.8940   -1.6630    1.2330 c3        1 MOL     -0.071831
     55 C18        -6.5430   -3.1000    1.6470 c         1 MOL      0.531060
     56 O9         -7.1550   -3.7010    2.5280 o         1 MOL     -0.544730
     57 H25        -5.3900   -0.7150    2.2430 hn        1 MOL      0.242744
     58 H26        -7.2510   -1.7300    0.2040 h1        1 MOL      0.062169
     59 H27        -7.5950   -1.2740    1.9690 h1        1 MOL      0.062169
     60 N6         -5.5710   -3.6840    0.8830 n         1 MOL      0.008499
     61 C19        -4.9290   -4.9910    1.1710 c3        1 MOL     -0.425887
     62 C20        -3.5360   -5.0240    0.5510 c         1 MOL      0.088790
     63 O10        -3.2120   -4.1560   -0.3420 o         1 MOL     -0.412156
     64 C21        -5.7070   -6.1460    0.4960 c3        1 MOL      0.261163
     65 C22        -6.2760   -5.8420   -0.8650 c         1 MOL      0.439502
     66 O11        -5.4150   -5.5170   -1.7360 o         1 MOL     -0.610097
     67 O12        -7.5110   -5.7600   -1.0100 o         1 MOL     -0.610097
     68 H28        -5.1530   -3.0660    0.2080 hn        1 MOL      0.092129
     69 H29        -4.8420   -5.0680    2.2550 h1        1 MOL      0.163309
     70 H30        -6.5720   -6.4670    1.0850 hc        1 MOL     -0.039462
     71 H31        -5.1420   -7.0680    0.4200 hc        1 MOL     -0.039462
     72 N7         -2.7230   -5.9570    0.9780 n         1 MOL     -0.085099
     73 C23        -1.2890   -5.9810    0.6270 c3        1 MOL     -0.207894
     74 C24        -0.3560   -5.0500    1.4910 c         1 MOL      0.615069
     75 O13         0.7500   -5.3520    1.9730 o         1 MOL     -0.576026
     76 H32        -3.0020   -6.5340    1.7630 hn        1 MOL      0.289292
     77 H33        -1.2200   -5.6370   -0.4080 h1        1 MOL      0.073998
     78 H34        -0.8790   -6.9880    0.6870 h1        1 MOL      0.073998
     79 N8         -0.8630   -3.8710    1.6760 n         1 MOL     -0.435833
     80 C25        -0.5250   -2.9650    2.7810 c3        1 MOL      0.027422
     81 C26        -0.1780   -1.6010    2.2090 c         1 MOL      0.193120
     82 O14        -0.6510   -1.2120    1.1390 o         1 MOL     -0.402239
     83 C27        -1.6770   -2.7520    3.7780 c3        1 MOL      0.332749
     84 C28        -2.9180   -2.0560    3.1330 c3        1 MOL     -0.026932
     85 O15        -2.1290   -3.9790    4.2280 oh        1 MOL     -0.590873
     86 H35        -1.7650   -3.6950    1.2550 hn        1 MOL      0.267482
     87 H36         0.3670   -3.3250    3.2970 h1        1 MOL      0.070069
     88 H37        -1.3230   -2.0970    4.5780 h1        1 MOL     -0.020926
     89 H38        -1.3970   -4.3930    4.6870 ho        1 MOL      0.371960
     90 H39        -3.6800   -2.0830    3.9000 hc        1 MOL      0.024271
     91 H40        -2.6300   -1.0080    3.0830 hc        1 MOL      0.024271
     92 H41        -3.2390   -2.2850    2.1200 hc        1 MOL      0.024271
     93 N9          0.6360   -0.8200    2.9680 n         1 MOL     -0.038361
     94 C29         1.0990    0.4930    2.5850 c3        1 MOL     -0.406614
     95 C30         2.2100    0.3620    1.4910 c         1 MOL      0.636258
     96 O16         2.2060    1.1490    0.5270 o         1 MOL     -0.514306
     97 C31         1.6120    1.2410    3.8390 c3        1 MOL      0.089769
     98 C32         0.4440    1.4390    4.8290 c3        1 MOL      0.060662
     99 C33         2.1070    2.6890    3.5180 c3        1 MOL     -0.260144
    100 C34         0.8390    1.9570    6.1270 c3        1 MOL     -0.141906
    101 H42         0.8070   -1.1530    3.9080 hn        1 MOL      0.173245
    102 H43         0.3540    1.1720    2.1550 h1        1 MOL      0.191260
    103 H44         2.3110    0.5540    4.3130 hc        1 MOL      0.023387
    104 H45        -0.0880    0.5160    5.0290 hc        1 MOL      0.015535
    105 H46        -0.3210    2.0870    4.3920 hc        1 MOL      0.015535
    106 H47         1.3020    3.4350    3.4940 hc        1 MOL      0.086731
    107 H48         2.7380    2.9950    4.3590 hc        1 MOL      0.086731
    108 H49         2.8180    2.7830    2.6970 hc        1 MOL      0.086731
    109 H50         1.7690    1.4580    6.4140 hc        1 MOL      0.025630
    110 H51         1.2230    2.9720    5.9960 hc        1 MOL      0.025630
    111 H52         0.0300    1.7840    6.8480 hc        1 MOL      0.025630
    112 N10         3.0090   -0.6830    1.6370 n         1 MOL     -0.302545
    113 C35         4.0660   -1.1120    0.7400 c3        1 MOL     -0.117993
    114 C36         5.0660   -1.8550    1.5990 c         1 MOL      0.599276
    115 O17         4.7750   -2.4250    2.6550 o         1 MOL     -0.516434
    116 C37         3.5670   -1.9730   -0.4010 c3        1 MOL      0.284362
    117 C38         2.3790   -2.8010   -0.0630 c3        1 MOL     -0.206726
    118 O18         3.1580   -1.1740   -1.5110 oh        1 MOL     -0.571016
    119 H53         2.9320   -1.2480    2.4640 hn        1 MOL      0.188293
    120 H54         4.6390   -0.2830    0.3310 h1        1 MOL      0.048947
    121 H55         4.4050   -2.5700   -0.7700 h1        1 MOL     -0.020674
    122 H56         3.6080   -1.4820   -2.3120 ho        1 MOL      0.375993
    123 H57         2.1790   -3.6060   -0.7600 hc        1 MOL      0.075980
    124 H58         2.6090   -3.2190    0.9200 hc        1 MOL      0.075980
    125 H59         1.4460   -2.2470    0.0140 hc        1 MOL      0.075980
    126 N11         6.2980   -1.6970    1.1500 n         1 MOL     -0.475507
    127 C39         7.5230   -2.2250    1.7910 c3        1 MOL     -0.132409
    128 C40         8.7490   -1.2150    1.5700 c         1 MOL      0.636150
    129 O19         9.6510   -1.1050    2.3840 o         1 MOL     -0.539637
    130 C41         7.7940   -3.5900    1.2350 c3        1 MOL      0.240165
    131 C42         8.9880   -4.3030    1.8930 c3        1 MOL     -0.487941
    132 O20         8.0400   -3.5630   -0.1520 oh        1 MOL     -0.641885
    133 H60         6.3740   -1.2930    0.2230 hn        1 MOL      0.344955
    134 H61         7.3430   -2.2170    2.8640 h1        1 MOL      0.157359
    135 H62         6.9070   -4.2020    1.3330 h1        1 MOL      0.074457
    136 H63         8.3330   -4.4260   -0.4510 ho        1 MOL      0.421125
    137 H64         9.0240   -5.2980    1.4380 hc        1 MOL      0.136433
    138 H65         9.9420   -3.8180    1.6500 hc        1 MOL      0.136433
    139 H66         8.8720   -4.4240    2.9670 hc        1 MOL      0.136433
    140 N12         8.6950   -0.4800    0.4490 n         1 MOL     -0.454730
    141 C43         9.7330    0.4680   -0.0690 c3        1 MOL     -0.000621
    142 C44         9.2370    1.4200   -1.1860 c         1 MOL      0.611566
    143 O21         8.7190    0.9130   -2.1760 o         1 MOL     -0.523922
    144 C45        11.0030   -0.4090   -0.4990 c3        1 MOL     -0.108751
    145 C46        12.1400    0.3500   -1.1420 c3        1 MOL     -0.131582
    146 C47        13.2190   -0.7710   -1.5450 c3        1 MOL      0.078834
    147 C48        14.3900   -0.0170   -2.2020 c3        1 MOL      0.083269
    148 N13        15.4050   -0.9510   -2.6560 n4        1 MOL     -0.247428
    149 H67         7.8440   -0.5320   -0.0910 hn        1 MOL      0.231689
    150 H68         9.9650    1.1500    0.7510 h1        1 MOL      0.068969
    151 H69        10.6600   -1.1570   -1.2130 hc        1 MOL      0.091299
    152 H70        11.3640   -0.9690    0.3600 hc        1 MOL      0.091299
    153 H71        12.4870    1.1780   -0.5280 hc        1 MOL      0.046718
    154 H72        11.6130    0.6910   -2.0340 hc        1 MOL      0.046718
    155 H73        12.7360   -1.4400   -2.2650 hc        1 MOL      0.005273
    156 H74        13.5120   -1.3500   -0.6750 hc        1 MOL      0.005273
    157 H75        14.8180    0.7260   -1.5410 hx        1 MOL      0.067738
    158 H76        14.0030    0.5250   -3.0660 hx        1 MOL      0.067738
    159 H77        15.1360   -1.6380   -3.3460 hn        1 MOL      0.239768
    160 H78        16.0980   -0.4460   -3.1800 hn        1 MOL      0.239768
    161 H79        15.9160   -1.4390   -1.9240 hn        1 MOL      0.239768
    162 N14         9.4380    2.7340   -1.0760 n         1 MOL     -0.506148
    163 C49         8.8490    3.7330   -1.9510 c3        1 MOL      0.056813
    164 C50         7.2510    3.7760   -2.1030 c         1 MOL      0.375696
    165 O22         6.7150    3.9340   -3.2290 o         1 MOL     -0.521490
    166 C51         9.2100    5.1690   -1.4420 c3        1 MOL     -0.009503
    167 C52        10.7270    5.5740   -1.6950 c3        1 MOL     -0.292176
    168 C53        11.0010    6.9860   -1.0780 c         1 MOL      0.689307
    169 O23        10.5470    7.9640   -1.6840 o         1 MOL     -0.644385
    170 O24        11.6230    7.0990    0.0070 o         1 MOL     -0.644385
    171 H80        10.0720    3.0070   -0.3350 hn        1 MOL      0.312879
    172 H81         9.2450    3.5960   -2.9600 h1        1 MOL      0.087283
    173 H82         8.9530    5.3720   -0.4010 hc        1 MOL      0.081899
    174 H83         8.6410    5.8420   -2.0880 hc        1 MOL      0.081899
    175 H84        10.9400    5.5230   -2.7590 hc        1 MOL      0.043551
    176 H85        11.3600    4.8120   -1.2330 hc        1 MOL      0.043551
    177 N15         6.4140    3.5440   -1.1310 n         1 MOL     -0.304413
    178 C54         6.7340    3.8710    0.3380 c3        1 MOL      0.002854
    179 H86         7.5860    3.2760    0.6640 h1        1 MOL      0.031856
    180 H87         6.9740    4.9300    0.4310 h1        1 MOL      0.031856
    181 H88         5.8690    3.6380    0.9590 h1        1 MOL      0.031856
    182 H89         5.4560    3.2920   -1.3430 hn        1 MOL      0.296643
    183 Ca1        -3.5320   -4.2400   -2.8900 Ca        1 MOL      1.658664
    184 O25        -5.0830   -5.1470   -4.8070 oh        1 MOL     -0.808159
    185 H90        -5.9770   -5.4690   -4.7070 ho        1 MOL      0.406389
    186 H91        -4.8250   -5.4470   -5.6870 ho        1 MOL      0.406389
    187 O26        -0.9530   -3.9080   -2.5650 oh        1 MOL     -0.808159
    188 H92        -0.3370   -3.2190   -2.8260 ho        1 MOL      0.406389
    189 H93        -0.3930   -4.6470   -2.3250 ho        1 MOL      0.406389
    190 O27        -3.6180   -2.5970   -5.0700 oh        1 MOL     -0.808159
    191 H94        -4.5360   -2.4440   -5.2730 ho        1 MOL      0.406389
    192 H95        -3.2070   -1.7390   -5.1530 ho        1 MOL      0.406389
    193 O28        -1.7220   -5.0820   -4.9940 oh        1 MOL     -0.808159
    194 H96        -1.8880   -5.7620   -5.6450 ho        1 MOL      0.406389
    195 H97        -1.0510   -4.5190   -5.3910 ho        1 MOL      0.406389
    196 O29        -2.9590   -6.8920   -2.5820 oh        1 MOL     -0.808159
    197 H98        -2.9110   -7.4460   -3.3600 ho        1 MOL      0.406389
    198 H99        -2.9920   -7.5030   -1.8490 ho        1 MOL      0.406389
@<TRIPOS>BOND
     1    1    2 1   
     2    1    4 1   
     3    1    5 1   
     4    1    6 1   
     5    2    3 2   
     6    2    7 1   
     7    7    8 1   
     8    7   15 1   
     9    8    9 1   
    10    8   11 1   
    11    8   16 1   
    12    9   10 2   
    13    9   19 1   
    14   11   12 1   
    15   11   17 1   
    16   11   18 1   
    17   12   13 1   
    18   12   14 1   
    19   19   20 1   
    20   19   28 1   
    21   20   21 1   
    22   20   23 1   
    23   20   29 1   
    24   21   22 2   
    25   21   41 1   
    26   23   24 1   
    27   23   30 1   
    28   23   31 1   
    29   24   25 1   
    30   24   32 1   
    31   24   33 1   
    32   25   26 1   
    33   25   34 1   
    34   25   35 1   
    35   26   27 1   
    36   26   36 1   
    37   26   37 1   
    38   27   38 1   
    39   27   39 1   
    40   27   40 1   
    41   41   42 1   
    42   41   49 1   
    43   42   43 1   
    44   42   45 1   
    45   42   50 1   
    46   43   44 2   
    47   43   53 1   
    48   45   46 1   
    49   45   51 1   
    50   45   52 1   
    51   46   47 1   
    52   46   48 1   
    53   53   54 1   
    54   53   57 1   
    55   54   55 1   
    56   54   58 1   
    57   54   59 1   
    58   55   56 2   
    59   55   60 1   
    60   60   61 1   
    61   60   68 1   
    62   61   62 1   
    63   61   64 1   
    64   61   69 1   
    65   62   63 2   
    66   62   72 1   
    67   64   65 1   
    68   64   70 1   
    69   64   71 1   
    70   65   66 1   
    71   65   67 1   
    72   72   73 1   
    73   72   76 1   
    74   73   74 1   
    75   73   77 1   
    76   73   78 1   
    77   74   75 2   
    78   74   79 1   
    79   79   80 1   
    80   79   86 1   
    81   80   81 1   
    82   80   83 1   
    83   80   87 1   
    84   81   82 2   
    85   81   93 1   
    86   83   84 1   
    87   83   85 1   
    88   83   88 1   
    89   84   90 1   
    90   84   91 1   
    91   84   92 1   
    92   85   89 1   
    93   93   94 1   
    94   93  101 1   
    95   94   95 1   
    96   94   97 1   
    97   94  102 1   
    98   95   96 2   
    99   95  112 1   
   100   97   98 1   
   101   97   99 1   
   102   97  103 1   
   103   98  100 1   
   104   98  104 1   
   105   98  105 1   
   106   99  106 1   
   107   99  107 1   
   108   99  108 1   
   109  100  109 1   
   110  100  110 1   
   111  100  111 1   
   112  112  113 1   
   113  112  119 1   
   114  113  114 1   
   115  113  116 1   
   116  113  120 1   
   117  114  115 2   
   118  114  126 1   
   119  116  117 1   
   120  116  118 1   
   121  116  121 1   
   122  117  123 1   
   123  117  124 1   
   124  117  125 1   
   125  118  122 1   
   126  126  127 1   
   127  126  133 1   
   128  127  128 1   
   129  127  130 1   
   130  127  134 1   
   131  128  129 2   
   132  128  140 1   
   133  130  131 1   
   134  130  132 1   
   135  130  135 1   
   136  131  137 1   
   137  131  138 1   
   138  131  139 1   
   139  132  136 1   
   140  140  141 1   
   141  140  149 1   
   142  141  142 1   
   143  141  144 1   
   144  141  150 1   
   145  142  143 2   
   146  142  162 1   
   147  144  145 1   
   148  144  151 1   
   149  144  152 1   
   150  145  146 1   
   151  145  153 1   
   152  145  154 1   
   153  146  147 1   
   154  146  155 1   
   155  146  156 1   
   156  147  148 1   
   157  147  157 1   
   158  147  158 1   
   159  148  159 1   
   160  148  160 1   
   161  148  161 1   
   162  162  163 1   
   163  162  171 1   
   164  163  164 1   
   165  163  166 1   
   166  163  172 1   
   167  164  165 2   
   168  164  177 1   
   169  166  167 1   
   170  166  173 1   
   171  166  174 1   
   172  167  168 1   
   173  167  175 1   
   174  167  176 1   
   175  168  169 1   
   176  168  170 1   
   177  177  178 1   
   178  177  182 1   
   179  178  179 1   
   180  178  180 1   
   181  178  181 1   
   182  184  185 1   
   183  184  186 1   
   184  187  188 1   
   185  187  189 1   
   186  190  191 1   
   187  190  192 1   
   188  193  194 1   
   189  193  195 1   
   190  196  197 1   
   191  196  198 1   
@<TRIPOS>SUBSTRUCTURE
     1 MOL         1 TEMP              0 ****  ****    0 ROOT
