@<TRIPOS>MOLECULE
MOL
  195   189     1     0     0
SMALL
resp


@<TRIPOS>ATOM
      1 C1          7.1360    9.1670   -2.3900 c3        1 MOL     -0.396347
      2 C2          6.6530    7.7420   -2.0350 c         1 MOL      0.712373
      3 O1          5.6460    7.6660   -1.3430 o         1 MOL     -0.609614
      4 H1          7.5610    9.1670   -3.3940 hc        1 MOL      0.099819
      5 H2          6.2930    9.8570   -2.3530 hc        1 MOL      0.099819
      6 H3          7.8950    9.4830   -1.6750 hc        1 MOL      0.099819
      7 N1          7.2800    6.6650   -2.4800 n         1 MOL     -0.536049
      8 C3          6.8830    5.3040   -2.0510 c3        1 MOL      0.010207
      9 C4          6.8650    5.0040   -0.5440 c         1 MOL      0.482673
     10 O2          7.8860    5.2170    0.1170 o         1 MOL     -0.496805
     11 C5          7.7980    4.3190   -2.8100 c3        1 MOL     -0.210053
     12 C6          7.6450    2.8260   -2.3960 c         1 MOL      0.794628
     13 O3          8.6260    2.2060   -1.9620 o         1 MOL     -0.729657
     14 O4          6.5300    2.2460   -2.6510 o         1 MOL     -0.729657
     15 H4          8.0620    6.7870   -3.1000 hn        1 MOL      0.323145
     16 H5          5.8530    5.1150   -2.3690 h1        1 MOL      0.064407
     17 H6          8.8260    4.6880   -2.7730 hc        1 MOL      0.051295
     18 H7          7.5710    4.2500   -3.8780 hc        1 MOL      0.051295
     19 N2          5.7880    4.4170   -0.1010 n         1 MOL     -0.246494
     20 C7          5.3660    4.3810    1.3220 c3        1 MOL      0.097289
     21 C8          5.9790    3.2450    2.3020 c         1 MOL      0.297905
     22 O5          6.3970    3.6270    3.3930 o         1 MOL     -0.548753
     23 C9          3.8370    4.3860    1.2420 c3        1 MOL     -0.293543
     24 C10         3.1730    3.9080    2.5600 c3        1 MOL     -0.080543
     25 C11         1.7240    4.3080    2.6600 c3        1 MOL      0.042849
     26 C12         1.1670    4.0760    4.0980 c3        1 MOL      0.162562
     27 N3          1.5480    5.1950    4.9430 n4        1 MOL     -0.485975
     28 H8          5.0700    4.2820   -0.7970 hn        1 MOL      0.194295
     29 H9          5.6040    5.3870    1.6740 h1        1 MOL      0.093484
     30 H10         3.4880    3.7240    0.4490 hc        1 MOL      0.146392
     31 H11         3.3740    5.3600    1.0930 hc        1 MOL      0.146392
     32 H12         3.7470    4.4240    3.3310 hc        1 MOL      0.020789
     33 H13         3.2350    2.8260    2.6730 hc        1 MOL      0.020789
     34 H14         1.1590    3.6780    1.9760 hc        1 MOL     -0.010774
     35 H15         1.5530    5.3490    2.3880 hc        1 MOL     -0.010774
     36 H16         1.5140    3.1470    4.5450 hx        1 MOL      0.037344
     37 H17         0.0780    3.9950    3.9730 hx        1 MOL      0.037344
     38 H18         2.3430    4.9900    5.5270 hn        1 MOL      0.369344
     39 H19         1.7250    5.9440    4.2880 hn        1 MOL      0.369344
     40 H20         0.7110    5.4910    5.4210 hn        1 MOL      0.369344
     41 N4          6.2450    2.0100    1.9470 n         1 MOL     -0.062446
     42 C13         5.9560    1.2100    0.7330 c3        1 MOL     -0.098184
     43 C14         6.9730    0.0140    0.5370 c         1 MOL      0.380705
     44 O6          7.3360   -0.6620    1.5070 o         1 MOL     -0.551029
     45 C15         4.4940    0.7330    0.7840 c3        1 MOL      0.304491
     46 C16         4.2350   -0.4510   -0.0990 c         1 MOL      0.014973
     47 O7          4.0840   -0.3060   -1.3070 o         1 MOL     -0.465122
     48 O8          4.1720   -1.5890    0.4630 o         1 MOL     -0.465122
     49 H21         6.8210    1.6090    2.6810 hn        1 MOL      0.208016
     50 H22         6.1970    1.8650   -0.1100 h1        1 MOL      0.059950
     51 H23         3.9010    1.6240    0.5430 hc        1 MOL     -0.156401
     52 H24         4.2330    0.2730    1.7350 hc        1 MOL     -0.156401
     53 N5          7.2720   -0.2600   -0.6770 n         1 MOL      0.097214
     54 C17         8.2370   -1.2150   -1.2200 c3        1 MOL     -0.290943
     55 C18         7.9100   -2.7510   -1.0890 c         1 MOL      0.365750
     56 O9          8.7370   -3.4920   -1.6600 o         1 MOL     -0.510920
     57 H25         7.0220    0.3620   -1.4310 hn        1 MOL      0.220608
     58 H26         9.1320   -0.9740   -0.6350 h1        1 MOL      0.145993
     59 H27         8.4750   -0.8860   -2.2290 h1        1 MOL      0.145993
     60 N6          6.7300   -3.1420   -0.6580 n         1 MOL      0.074331
     61 C19         6.1420   -4.4020   -1.0350 c3        1 MOL     -0.015502
     62 C20         6.3270   -4.8280   -2.5330 c         1 MOL      0.643532
     63 O10         6.9040   -5.8400   -2.7570 o         1 MOL     -0.567936
     64 C21         6.4410   -5.5050   -0.0450 c3        1 MOL      0.251107
     65 C22         6.2510   -5.2360    1.4350 c         1 MOL      0.361488
     66 O11         7.1700   -5.6130    2.1660 o         1 MOL     -0.622538
     67 O12         5.2450   -4.6240    1.8390 o         1 MOL     -0.622538
     68 H28         6.1680   -2.3570   -0.3660 hn        1 MOL     -0.088561
     69 H29         5.0560   -4.4210   -0.9130 h1        1 MOL     -0.047283
     70 H30         7.4580   -5.8570   -0.1700 hc        1 MOL     -0.043324
     71 H31         5.8660   -6.3690   -0.3790 hc        1 MOL     -0.043324
     72 N7          5.9040   -4.0500   -3.5350 n         1 MOL     -0.552833
     73 C23         4.8680   -3.0700   -3.3210 c3        1 MOL      0.035845
     74 C24         3.5040   -3.5880   -2.9460 c         1 MOL      0.437445
     75 O13         2.9900   -4.4370   -3.6920 o         1 MOL     -0.560193
     76 H32         6.1190   -4.3400   -4.4730 hn        1 MOL      0.331588
     77 H33         4.8230   -2.3990   -4.1830 h1        1 MOL      0.090874
     78 H34         5.2050   -2.3920   -2.5430 h1        1 MOL      0.090874
     79 N8          2.8120   -3.1890   -1.8620 n         1 MOL     -0.193127
     80 C25         1.6030   -3.7260   -1.3690 c3        1 MOL     -0.086030
     81 C26         0.9270   -2.7520   -0.4400 c         1 MOL      0.329198
     82 O14         1.2080   -2.6540    0.7330 o         1 MOL     -0.381995
     83 C27         1.8970   -5.1050   -0.7500 c3        1 MOL      0.641111
     84 C28         0.6560   -5.9910   -0.3620 c3        1 MOL     -0.522557
     85 O15         2.7060   -5.0170    0.4100 oh        1 MOL     -0.776590
     86 H35         3.0990   -2.2880   -1.5070 hn        1 MOL      0.129314
     87 H36         0.9870   -3.9420   -2.2440 h1        1 MOL      0.041556
     88 H37         2.3690   -5.7680   -1.4690 h1        1 MOL     -0.010143
     89 H38         2.9530   -5.9350    0.5840 ho        1 MOL      0.398098
     90 H39         0.0170   -6.1270   -1.2400 hc        1 MOL      0.122504
     91 H40         1.1340   -6.9410   -0.1230 hc        1 MOL      0.122504
     92 H41         0.1210   -5.7140    0.5390 hc        1 MOL      0.122504
     93 N9          0.1560   -1.8260   -1.0740 n         1 MOL     -0.294466
     94 C29        -0.7730   -0.8070   -0.4460 c3        1 MOL     -0.231258
     95 C30        -2.0170   -1.6150    0.0010 c         1 MOL      0.561276
     96 O16        -1.8670   -2.5770    0.8240 o         1 MOL     -0.543846
     97 C31        -0.1760   -0.0030    0.7410 c3        1 MOL      0.000971
     98 C32         1.1000    0.7510    0.3040 c3        1 MOL      0.141977
     99 C33        -1.2040    0.8700    1.3540 c3        1 MOL     -0.093743
    100 C34         0.9700    1.9840   -0.6470 c3        1 MOL     -0.060186
    101 H42        -0.1000   -2.0250   -2.0280 hn        1 MOL      0.290964
    102 H43        -1.1500   -0.1200   -1.2080 h1        1 MOL      0.144577
    103 H44         0.1610   -0.7310    1.4820 hc        1 MOL      0.076638
    104 H45         1.7860    0.0720   -0.2180 hc        1 MOL      0.043047
    105 H46         1.5330    0.9850    1.2680 hc        1 MOL      0.043047
    106 H47        -1.4010    1.6590    0.6260 hc        1 MOL      0.008943
    107 H48        -2.0690    0.3660    1.7770 hc        1 MOL      0.008943
    108 H49        -0.7840    1.4140    2.1950 hc        1 MOL      0.008943
    109 H50         0.6020    2.8140   -0.0460 hc        1 MOL      0.026246
    110 H51         1.9120    2.3730   -1.0380 hc        1 MOL      0.026246
    111 H52         0.3130    1.7940   -1.5020 hc        1 MOL      0.026246
    112 N10        -3.2170   -1.1490   -0.3750 n         1 MOL     -0.329120
    113 C35        -4.5190   -1.7510    0.0240 c3        1 MOL     -0.281616
    114 C36        -5.5750   -1.5890   -1.0690 c         1 MOL      0.666740
    115 O17        -5.4600   -0.7560   -1.9410 o         1 MOL     -0.518043
    116 C37        -5.0190   -1.1490    1.4150 c3        1 MOL      0.305928
    117 C38        -5.1820    0.4310    1.3480 c3        1 MOL     -0.122438
    118 O18        -4.1110   -1.3810    2.4180 oh        1 MOL     -0.590434
    119 H53        -3.3030   -0.4130   -1.0560 hn        1 MOL      0.244570
    120 H54        -4.3040   -2.8140    0.0910 h1        1 MOL      0.136926
    121 H55        -5.9730   -1.5690    1.7660 h1        1 MOL      0.050560
    122 H56        -3.2700   -1.5680    1.9930 ho        1 MOL      0.363850
    123 H57        -5.9260    0.5860    0.5710 hc        1 MOL      0.057237
    124 H58        -5.5470    0.8250    2.3060 hc        1 MOL      0.057237
    125 H59        -4.2580    0.9690    1.1700 hc        1 MOL      0.057237
    126 N11        -6.6810   -2.3070   -0.8990 n         1 MOL     -0.531367
    127 C39        -8.0420   -2.0240   -1.4120 c3        1 MOL      0.001256
    128 C40        -8.7420   -0.8520   -0.7130 c         1 MOL      0.510138
    129 O19        -8.3140   -0.3580    0.3540 o         1 MOL     -0.440850
    130 C41        -8.9280   -3.2860   -1.4790 c3        1 MOL      0.379826
    131 C42        -8.6210   -4.2390   -2.6440 c3        1 MOL     -0.306312
    132 O20        -8.7930   -3.9820   -0.2000 oh        1 MOL     -0.641238
    133 H60        -6.7120   -3.0600   -0.2270 hn        1 MOL      0.303577
    134 H61        -8.0450   -1.6730   -2.4400 h1        1 MOL      0.064270
    135 H62        -9.9630   -2.9520   -1.5180 h1        1 MOL     -0.066578
    136 H63        -9.2400   -4.8330   -0.1660 ho        1 MOL      0.413614
    137 H64        -7.6090   -4.6160   -2.4760 hc        1 MOL      0.087844
    138 H65        -9.2090   -5.1510   -2.6230 hc        1 MOL      0.087844
    139 H66        -8.7180   -3.8010   -3.6340 hc        1 MOL      0.087844
    140 N12        -9.8120   -0.3830   -1.3820 n         1 MOL     -0.379822
    141 C43       -10.6340    0.7100   -0.8530 c3        1 MOL      0.115998
    142 C44        -9.9140    1.9610   -0.3640 c         1 MOL      0.456443
    143 O21       -10.1400    2.4390    0.7770 o         1 MOL     -0.479488
    144 C45       -11.5810    0.1780    0.2510 c3        1 MOL     -0.178238
    145 C46       -12.4330   -0.9960   -0.2010 c3        1 MOL     -0.018082
    146 C47       -13.5300   -1.3560    0.9010 c3        1 MOL     -0.038531
    147 C48       -14.0770   -2.7490    0.7510 c3        1 MOL     -0.049291
    148 N13       -14.9450   -3.0440    1.9310 n4        1 MOL     -0.097756
    149 H67       -10.0580   -0.7630   -2.2890 hn        1 MOL      0.248970
    150 H68       -11.2090    1.0680   -1.7110 h1        1 MOL      0.056512
    151 H69       -12.2570    0.9480    0.6030 hc        1 MOL      0.087771
    152 H70       -10.9000   -0.1450    1.0430 hc        1 MOL      0.087771
    153 H71       -11.8950   -1.9410   -0.3060 hc        1 MOL      0.024420
    154 H72       -12.8920   -0.7980   -1.1690 hc        1 MOL      0.024420
    155 H73       -14.3870   -0.6780    0.9850 hc        1 MOL      0.044068
    156 H74       -13.0980   -1.1910    1.8860 hc        1 MOL      0.044068
    157 H75       -13.2290   -3.4320    0.8070 hx        1 MOL      0.091445
    158 H76       -14.5810   -2.9460   -0.1960 hx        1 MOL      0.091445
    159 H77       -15.4810   -3.8860    1.8580 hn        1 MOL      0.190698
    160 H78       -14.5290   -2.8910    2.8460 hn        1 MOL      0.190698
    161 H79       -15.6300   -2.3160    2.0310 hn        1 MOL      0.190698
    162 N14        -9.0240    2.4700   -1.2010 n         1 MOL     -0.514636
    163 C49        -7.9590    3.3820   -0.8420 c3        1 MOL      0.223881
    164 C50        -6.5740    2.8270   -1.3300 c         1 MOL      0.491525
    165 O22        -5.6820    2.6860   -0.5450 o         1 MOL     -0.544226
    166 C51        -8.3510    4.8520   -1.2420 c3        1 MOL     -0.069210
    167 C52        -7.4410    5.8830   -0.6630 c3        1 MOL     -0.184509
    168 C53        -7.8830    6.1540    0.7770 c         1 MOL      0.719436
    169 O23        -7.3730    5.5500    1.7380 o         1 MOL     -0.638612
    170 O24        -8.7110    7.0860    1.0010 o         1 MOL     -0.638612
    171 H80        -8.9990    1.9270   -2.0470 hn        1 MOL      0.214254
    172 H81        -7.8700    3.2880    0.2380 h1        1 MOL      0.074425
    173 H82        -9.4020    5.1010   -1.1000 hc        1 MOL      0.042157
    174 H83        -8.2230    4.8670   -2.3250 hc        1 MOL      0.042157
    175 H84        -7.4200    6.8350   -1.1990 hc        1 MOL      0.029501
    176 H85        -6.4650    5.4130   -0.5910 hc        1 MOL      0.029501
    177 N15        -6.4590    2.4450   -2.5870 n         1 MOL     -0.390269
    178 C54        -7.2360    2.7040   -3.8340 c3        1 MOL     -0.034633
    179 H86        -8.0750    3.3630   -3.6090 h1        1 MOL      0.054832
    180 H87        -6.5900    3.1780   -4.5740 h1        1 MOL      0.054832
    181 H88        -7.6130    1.7620   -4.2310 h1        1 MOL      0.054832
    182 H89        -5.6640    1.8310   -2.7090 hn        1 MOL      0.286169
    183 Ca1         3.2760   -3.1490    2.2490 Ca        1 MOL      1.737240
    184 O25         4.0890   -3.8570    4.9920 oh        1 MOL     -0.873816
    185 H90         4.1510   -4.5220    5.6740 ho        1 MOL      0.428940
    186 H91         4.7450   -3.1930    5.2410 ho        1 MOL      0.428940
    187 O26         5.5860   -1.7890    3.1940 oh        1 MOL     -0.873816
    188 H92         6.1030   -1.5040    3.9470 ho        1 MOL      0.428940
    189 H93         6.1700   -1.6650    2.4360 ho        1 MOL      0.428940
    190 O27         2.6650   -0.9370    3.5100 oh        1 MOL     -0.873816
    191 H94         3.3680   -0.3010    3.6300 ho        1 MOL      0.428940
    192 H95         1.8920   -0.5190    3.8870 ho        1 MOL      0.428940
    193 O28         1.0600   -4.0690    3.3900 oh        1 MOL     -0.873816
    194 H96         0.4590   -3.3980    3.7190 ho        1 MOL      0.428940
    195 H97         0.8210   -4.8630    3.8660 ho        1 MOL      0.428940
@<TRIPOS>BOND
     1    1    2 1   
     2    1    4 1   
     3    1    5 1   
     4    1    6 1   
     5    2    3 2   
     6    2    7 1   
     7    7    8 1   
     8    7   15 1   
     9    8    9 1   
    10    8   11 1   
    11    8   16 1   
    12    9   10 2   
    13    9   19 1   
    14   11   12 1   
    15   11   17 1   
    16   11   18 1   
    17   12   13 1   
    18   12   14 1   
    19   19   20 1   
    20   19   28 1   
    21   20   21 1   
    22   20   23 1   
    23   20   29 1   
    24   21   22 2   
    25   21   41 1   
    26   23   24 1   
    27   23   30 1   
    28   23   31 1   
    29   24   25 1   
    30   24   32 1   
    31   24   33 1   
    32   25   26 1   
    33   25   34 1   
    34   25   35 1   
    35   26   27 1   
    36   26   36 1   
    37   26   37 1   
    38   27   38 1   
    39   27   39 1   
    40   27   40 1   
    41   41   42 1   
    42   41   49 1   
    43   42   43 1   
    44   42   45 1   
    45   42   50 1   
    46   43   44 2   
    47   43   53 1   
    48   45   46 1   
    49   45   51 1   
    50   45   52 1   
    51   46   47 1   
    52   46   48 1   
    53   53   54 1   
    54   53   57 1   
    55   54   55 1   
    56   54   58 1   
    57   54   59 1   
    58   55   56 2   
    59   55   60 1   
    60   60   61 1   
    61   60   68 1   
    62   61   62 1   
    63   61   64 1   
    64   61   69 1   
    65   62   63 2   
    66   62   72 1   
    67   64   65 1   
    68   64   70 1   
    69   64   71 1   
    70   65   66 1   
    71   65   67 1   
    72   72   73 1   
    73   72   76 1   
    74   73   74 1   
    75   73   77 1   
    76   73   78 1   
    77   74   75 2   
    78   74   79 1   
    79   79   80 1   
    80   79   86 1   
    81   80   81 1   
    82   80   83 1   
    83   80   87 1   
    84   81   82 2   
    85   81   93 1   
    86   83   84 1   
    87   83   85 1   
    88   83   88 1   
    89   84   90 1   
    90   84   91 1   
    91   84   92 1   
    92   85   89 1   
    93   93   94 1   
    94   93  101 1   
    95   94   95 1   
    96   94   97 1   
    97   94  102 1   
    98   95   96 2   
    99   95  112 1   
   100   97   98 1   
   101   97   99 1   
   102   97  103 1   
   103   98  100 1   
   104   98  104 1   
   105   98  105 1   
   106   99  106 1   
   107   99  107 1   
   108   99  108 1   
   109  100  109 1   
   110  100  110 1   
   111  100  111 1   
   112  112  113 1   
   113  112  119 1   
   114  113  114 1   
   115  113  116 1   
   116  113  120 1   
   117  114  115 2   
   118  114  126 1   
   119  116  117 1   
   120  116  118 1   
   121  116  121 1   
   122  117  123 1   
   123  117  124 1   
   124  117  125 1   
   125  118  122 1   
   126  126  127 1   
   127  126  133 1   
   128  127  128 1   
   129  127  130 1   
   130  127  134 1   
   131  128  129 2   
   132  128  140 1   
   133  130  131 1   
   134  130  132 1   
   135  130  135 1   
   136  131  137 1   
   137  131  138 1   
   138  131  139 1   
   139  132  136 1   
   140  140  141 1   
   141  140  149 1   
   142  141  142 1   
   143  141  144 1   
   144  141  150 1   
   145  142  143 2   
   146  142  162 1   
   147  144  145 1   
   148  144  151 1   
   149  144  152 1   
   150  145  146 1   
   151  145  153 1   
   152  145  154 1   
   153  146  147 1   
   154  146  155 1   
   155  146  156 1   
   156  147  148 1   
   157  147  157 1   
   158  147  158 1   
   159  148  159 1   
   160  148  160 1   
   161  148  161 1   
   162  162  163 1   
   163  162  171 1   
   164  163  164 1   
   165  163  166 1   
   166  163  172 1   
   167  164  165 2   
   168  164  177 1   
   169  166  167 1   
   170  166  173 1   
   171  166  174 1   
   172  167  168 1   
   173  167  175 1   
   174  167  176 1   
   175  168  169 1   
   176  168  170 1   
   177  177  178 1   
   178  177  182 1   
   179  178  179 1   
   180  178  180 1   
   181  178  181 1   
   182  184  185 1   
   183  184  186 1   
   184  187  188 1   
   185  187  189 1   
   186  190  191 1   
   187  190  192 1   
   188  193  194 1   
   189  193  195 1   
@<TRIPOS>SUBSTRUCTURE
     1 MOL         1 TEMP              0 ****  ****    0 ROOT
