@<TRIPOS>MOLECULE
MOL
  195   189     1     0     0
SMALL
resp


@<TRIPOS>ATOM
      1 C1         -4.4330   -1.5870    2.5770 c3        1 MOL     -0.262967
      2 C2         -3.7400   -2.5880    1.6530 c         1 MOL      0.535928
      3 O1         -2.5910   -2.3110    1.3390 o         1 MOL     -0.476353
      4 H1         -4.0540   -1.7060    3.5920 hc        1 MOL      0.058795
      5 H2         -4.2320   -0.5730    2.2310 hc        1 MOL      0.058795
      6 H3         -5.5080   -1.7670    2.5680 hc        1 MOL      0.058795
      7 N1         -4.3730   -3.7070    1.2650 n         1 MOL     -0.412548
      8 C3         -3.9060   -4.6580    0.1410 c3        1 MOL     -0.008814
      9 C4         -2.4010   -4.9770    0.1580 c         1 MOL      0.686892
     10 O2         -1.7790   -5.1290   -0.9500 o         1 MOL     -0.495288
     11 C5         -4.2890   -4.0550   -1.2690 c3        1 MOL     -0.465080
     12 C6         -5.7370   -3.5930   -1.3940 c         1 MOL      1.169431
     13 O3         -6.6360   -4.2010   -0.7870 o         1 MOL     -0.930807
     14 O4         -6.0000   -2.6190   -2.1490 o         1 MOL     -0.930807
     15 H4         -5.3600   -3.7760    1.4430 hn        1 MOL      0.220338
     16 H5         -4.4250   -5.6140    0.1890 h1        1 MOL      0.109664
     17 H6         -4.0740   -4.7400   -2.0840 hc        1 MOL      0.123073
     18 H7         -3.6350   -3.1920   -1.4530 hc        1 MOL      0.123073
     19 N2         -1.7980   -4.9870    1.3690 n         1 MOL     -0.699209
     20 C7         -0.3470   -5.1890    1.5200 c3        1 MOL      0.011280
     21 C8          0.0560   -6.5980    1.1320 c         1 MOL      0.412746
     22 O5         -0.7340   -7.5270    1.1520 o         1 MOL     -0.558333
     23 C9          0.1800   -4.8330    2.9570 c3        1 MOL      0.256825
     24 C10        -0.6640   -5.5820    4.0530 c3        1 MOL     -0.062955
     25 C11         0.1890   -3.3130    3.2100 c3        1 MOL     -0.426071
     26 C12         0.0910   -5.6360    5.3780 c3        1 MOL     -0.225826
     27 H8         -2.3190   -4.6370    2.1540 hn        1 MOL      0.290970
     28 H9          0.1340   -4.4900    0.8370 h1        1 MOL      0.151865
     29 H10         1.2190   -5.1440    2.9980 hc        1 MOL      0.080939
     30 H11        -0.8350   -6.6300    3.8350 hc        1 MOL      0.052424
     31 H12        -1.5930   -5.0270    4.1620 hc        1 MOL      0.052424
     32 H13         0.4050   -2.7950    2.2730 hc        1 MOL      0.105067
     33 H14        -0.7700   -2.9810    3.6050 hc        1 MOL      0.105067
     34 H15         0.9620   -3.1210    3.9600 hc        1 MOL      0.105067
     35 H16         0.1590   -4.6850    5.9100 hc        1 MOL      0.043401
     36 H17        -0.5190   -6.3300    5.9420 hc        1 MOL      0.043401
     37 H18         1.1150   -5.9860    5.2110 hc        1 MOL      0.043401
     38 N3          1.3090   -6.9360    0.7980 n         1 MOL     -0.364051
     39 C13         2.5130   -6.1360    0.5460 c3        1 MOL      0.074650
     40 C14         3.1140   -6.4280   -0.8650 c         1 MOL      0.502925
     41 O6          2.5360   -7.2310   -1.5840 o         1 MOL     -0.559429
     42 C15         3.6030   -6.4930    1.6600 c3        1 MOL     -0.390846
     43 C16         4.6510   -5.3930    1.9320 c         1 MOL      0.777732
     44 O7          4.8550   -4.4670    1.1530 o         1 MOL     -0.710364
     45 O8          5.2730   -5.4510    2.9620 o         1 MOL     -0.710364
     46 H19         1.3580   -7.9350    0.6890 hn        1 MOL      0.278733
     47 H20         2.3090   -5.0650    0.5520 h1        1 MOL      0.028955
     48 H21         3.9480   -7.5160    1.5110 hc        1 MOL      0.074026
     49 H22         3.0580   -6.5450    2.5970 hc        1 MOL      0.074026
     50 N4          4.1630   -5.6840   -1.2440 n         1 MOL     -0.162131
     51 C17         4.9620   -5.8680   -2.4580 c3        1 MOL     -0.433424
     52 C18         5.9490   -4.7670   -2.8630 c         1 MOL      0.818550
     53 O9          6.7880   -5.0110   -3.7220 o         1 MOL     -0.631243
     54 H23         4.4100   -4.9460   -0.5960 hn        1 MOL      0.184405
     55 H24         4.3490   -5.9710   -3.3560 h1        1 MOL      0.142270
     56 H25         5.5310   -6.7640   -2.1990 h1        1 MOL      0.142270
     57 N5          6.0100   -3.5870   -2.1550 n         1 MOL     -0.604146
     58 C19         6.8590   -2.4330   -2.5480 c3        1 MOL      0.159654
     59 C20         7.6770   -1.9820   -1.3450 c         1 MOL      0.529894
     60 O10         8.8370   -1.7940   -1.5970 o         1 MOL     -0.564078
     61 C21         6.0160   -1.2770   -3.1670 c3        1 MOL     -0.273197
     62 C22         4.9770   -0.7330   -2.2020 c         1 MOL      0.696245
     63 O11         3.8560   -1.3290   -2.0000 o         1 MOL     -0.685903
     64 O12         5.1980    0.3140   -1.5440 o         1 MOL     -0.685903
     65 H26         5.2180   -3.4390   -1.5440 hn        1 MOL      0.265021
     66 H27         7.5530   -2.6640   -3.3560 h1        1 MOL      0.071318
     67 H28         5.5050   -1.6260   -4.0580 hc        1 MOL      0.066756
     68 H29         6.7070   -0.5210   -3.5500 hc        1 MOL      0.066756
     69 N6          7.1600   -1.7350   -0.1210 n         1 MOL     -0.308937
     70 C23         7.8930   -0.9860    0.8860 c3        1 MOL     -0.329727
     71 C24         8.3030    0.5170    0.5590 c         1 MOL      0.634160
     72 O13         9.0680    1.1290    1.3040 o         1 MOL     -0.637084
     73 H30         6.2110   -2.0320    0.0710 hn        1 MOL      0.330083
     74 H31         8.8200   -1.5240    1.0730 h1        1 MOL      0.146773
     75 H32         7.2980   -0.9710    1.8020 h1        1 MOL      0.146773
     76 N7          7.8370    1.0240   -0.5840 n         1 MOL     -0.187187
     77 C25         7.9220    2.4330   -1.0530 c3        1 MOL     -0.027293
     78 C26         7.5890    3.5610   -0.0210 c         1 MOL      0.344772
     79 O14         7.9880    4.7230   -0.2740 o         1 MOL     -0.513019
     80 C27         9.2340    2.6210   -1.8250 c3        1 MOL      0.205423
     81 C28         9.3100    1.7630   -3.0510 c3        1 MOL     -0.247876
     82 C29        10.5110    2.1660   -3.8320 c         1 MOL      0.720187
     83 N8         11.7090    1.7500   -3.5030 n         1 MOL     -0.834917
     84 O15        10.3730    2.8870   -4.8300 o         1 MOL     -0.604641
     85 H33         7.3110    0.3620   -1.1470 hn        1 MOL      0.086994
     86 H34         7.1400    2.4710   -1.8110 h1        1 MOL      0.106964
     87 H35        10.1050    2.3280   -1.2360 hc        1 MOL     -0.028501
     88 H36         9.3910    3.6720   -2.0700 hc        1 MOL     -0.028501
     89 H37         8.3770    1.7020   -3.6070 hc        1 MOL      0.051923
     90 H38         9.4610    0.7070   -2.8120 hc        1 MOL      0.051923
     91 H39        11.7870    0.9290   -2.9180 hn        1 MOL      0.365661
     92 H40        12.5380    2.2620   -3.7580 hn        1 MOL      0.365661
     93 N9          6.8500    3.2580    1.0650 n         1 MOL     -0.066622
     94 C30         6.4110    4.1400    2.1220 c3        1 MOL     -0.139458
     95 C31         4.9080    4.4180    2.1960 c         1 MOL      0.523147
     96 O16         4.5730    5.3890    2.8880 o         1 MOL     -0.555104
     97 C32         6.8990    3.6040    3.4530 c3        1 MOL      0.301324
     98 C33         6.3320    2.2320    3.8200 c3        1 MOL     -0.355711
     99 C34         8.4500    3.5570    3.5350 c3        1 MOL     -0.355711
    100 H41         6.7300    2.2600    1.1750 hn        1 MOL      0.154316
    101 H42         6.9490    5.0590    1.8940 h1        1 MOL      0.091420
    102 H43         6.5360    4.2710    4.2460 hc        1 MOL     -0.034095
    103 H44         6.8080    1.4690    3.1920 hc        1 MOL      0.084818
    104 H45         6.5400    1.9050    4.8400 hc        1 MOL      0.084818
    105 H46         5.2620    2.2330    3.6040 hc        1 MOL      0.084818
    106 H47         8.8890    4.5500    3.3700 hc        1 MOL      0.084818
    107 H48         8.7130    3.1520    4.5040 hc        1 MOL      0.084818
    108 H49         8.8840    3.0730    2.6580 hc        1 MOL      0.084818
    109 N10         4.0060    3.6590    1.5530 n         1 MOL     -0.405035
    110 C35         2.6040    3.5790    2.0000 c3        1 MOL      0.263808
    111 C36         1.6600    3.4320    0.7960 c         1 MOL      0.446706
    112 O17         2.0970    2.8800   -0.2250 o         1 MOL     -0.469963
    113 C37         2.4920    2.4840    3.1030 c3        1 MOL     -0.319751
    114 C38         1.1130    2.2050    3.6340 c         1 MOL      0.720579
    115 N11         0.5320    1.1280    3.2770 n         1 MOL     -0.788807
    116 O18         0.4700    3.0610    4.1560 o         1 MOL     -0.611392
    117 H50         4.3660    3.0810    0.8010 hn        1 MOL      0.204866
    118 H51         2.2900    4.5420    2.4000 h1        1 MOL      0.016324
    119 H52         3.0950    2.5870    3.9990 hc        1 MOL      0.095122
    120 H53         2.8430    1.4720    2.8740 hc        1 MOL      0.095122
    121 H54         0.9040    0.5000    2.5790 hn        1 MOL      0.359133
    122 H55        -0.4160    0.9310    3.5430 hn        1 MOL      0.359133
    123 N12         0.3720    3.7200    0.9160 n         1 MOL     -0.454885
    124 C39        -0.6380    3.3390   -0.1220 c3        1 MOL     -0.037658
    125 C40        -1.9980    4.0940    0.0930 c         1 MOL      0.713599
    126 O19        -2.5710    4.0180    1.2180 o         1 MOL     -0.613259
    127 C41        -0.9790    1.8010   -0.1600 c3        1 MOL     -0.097988
    128 C42        -2.1720    1.4800   -1.0210 ca        1 MOL      0.006143
    129 C43        -3.2760    0.8020   -0.3980 ca        1 MOL     -0.116158
    130 C44        -2.0720    1.6250   -2.3880 ca        1 MOL     -0.116158
    131 C45        -4.3030    0.2480   -1.1770 ca        1 MOL     -0.197944
    132 C46        -3.0610    1.0330   -3.1910 ca        1 MOL     -0.197944
    133 C47        -4.1330    0.2960   -2.5620 ca        1 MOL      0.226825
    134 O20        -4.9640   -0.3290   -3.3310 oh        1 MOL     -0.549690
    135 H56         0.0780    4.2910    1.6920 hn        1 MOL      0.321712
    136 H57        -0.2040    3.5470   -1.1000 h1        1 MOL      0.086273
    137 H58        -1.1550    1.4150    0.8490 hc        1 MOL      0.087713
    138 H59        -0.0890    1.2450   -0.4200 hc        1 MOL      0.087713
    139 H60        -3.2460    0.7260    0.6800 ha        1 MOL      0.115784
    140 H61        -1.2800    2.1870   -2.8650 ha        1 MOL      0.115784
    141 H62        -5.0610   -0.3920   -0.7460 ha        1 MOL      0.114446
    142 H63        -2.9710    1.1350   -4.2640 ha        1 MOL      0.114446
    143 H64        -5.3960   -1.0040   -2.7900 ho        1 MOL      0.568393
    144 N13        -2.4460    4.9000   -0.8160 n         1 MOL     -0.736108
    145 C48        -3.5460    5.8080   -0.7470 c3        1 MOL      0.410979
    146 C49        -4.6600    5.3000   -1.6560 c         1 MOL      0.416945
    147 O21        -4.7860    5.8330   -2.7680 o         1 MOL     -0.525682
    148 C50        -3.0800    7.2240   -1.0330 c3        1 MOL     -0.086394
    149 C51        -4.2790    8.1750   -0.6060 c3        1 MOL     -0.272071
    150 C52        -3.7550    9.5140   -1.0040 c         1 MOL      0.712640
    151 O22        -2.9620   10.1070   -0.2420 o         1 MOL     -0.666724
    152 O23        -4.1450   10.0640   -2.0790 o         1 MOL     -0.666724
    153 H65        -2.0490    4.7150   -1.7270 hn        1 MOL      0.317140
    154 H66        -3.8990    5.8240    0.2820 h1        1 MOL      0.055907
    155 H67        -2.8340    7.4030   -2.0820 hc        1 MOL      0.052353
    156 H68        -2.2240    7.4400   -0.3880 hc        1 MOL      0.052353
    157 H69        -4.5450    8.1740    0.4520 hc        1 MOL      0.065385
    158 H70        -5.1690    7.8760   -1.1680 hc        1 MOL      0.065385
    159 N14        -5.4680    4.3180   -1.2520 n         1 MOL     -0.478208
    160 C53        -5.6160    3.6010    0.0340 c3        1 MOL     -0.024261
    161 C54        -6.0220    4.6350    1.0900 c         1 MOL      0.540196
    162 O24        -6.6830    5.6670    0.8450 o         1 MOL     -0.542900
    163 C55        -6.6620    2.5420   -0.2570 c3        1 MOL     -0.141631
    164 C56        -6.8540    1.4730    0.8790 c3        1 MOL     -0.068490
    165 C57        -7.6450    0.1670    0.5050 c         1 MOL      0.638934
    166 O25        -8.8500    0.2310    0.2820 o         1 MOL     -0.695324
    167 O26        -7.0900   -0.9580    0.5420 o         1 MOL     -0.695324
    168 H71        -5.9840    3.8780   -2.0030 hn        1 MOL      0.299345
    169 H72        -4.6550    3.1840    0.3220 h1        1 MOL      0.076382
    170 H73        -6.3400    1.9330   -1.1100 hc        1 MOL      0.082542
    171 H74        -7.6300    2.9480   -0.5580 hc        1 MOL      0.082542
    172 H75        -7.2860    1.9570    1.7470 hc        1 MOL      0.001676
    173 H76        -5.8560    1.1780    1.2090 hc        1 MOL      0.001676
    174 N15        -5.6840    4.3220    2.3120 n         1 MOL     -0.253989
    175 C58        -5.8070    5.1690    3.4760 c3        1 MOL     -0.284731
    176 H77        -5.5280    4.6050    4.3660 h1        1 MOL      0.112836
    177 H78        -5.1470    6.0300    3.3710 h1        1 MOL      0.112836
    178 H79        -6.8380    5.5100    3.5710 h1        1 MOL      0.112836
    179 H80        -5.0560    3.5500    2.4620 hn        1 MOL      0.279027
    180 Ca1        -8.6440   -2.5350   -0.7100 Ca        1 MOL      1.677329
    181 O27       -10.3590   -4.6400   -0.6090 oh        1 MOL     -0.752870
    182 H81       -10.7800   -5.0960    0.1220 ho        1 MOL      0.358694
    183 H82       -10.3130   -5.2940   -1.3060 ho        1 MOL      0.358694
    184 O28       -10.9310   -2.2880    1.2330 oh        1 MOL     -0.752870
    185 H83       -11.7270   -2.6740    0.8730 ho        1 MOL      0.358694
    186 H84       -10.8680   -2.6420    2.1190 ho        1 MOL      0.358694
    187 O29        -8.7090   -0.7610   -2.8090 oh        1 MOL     -0.752870
    188 H85        -9.6490   -0.6050   -2.9450 ho        1 MOL      0.358694
    189 H86        -8.2840   -0.1070   -3.3620 ho        1 MOL      0.358694
    190 O30        -9.0210   -3.8370   -3.2250 oh        1 MOL     -0.752870
    191 H87        -8.6110   -3.4220   -3.9900 ho        1 MOL      0.358694
    192 H88        -9.7710   -4.3210   -3.5870 ho        1 MOL      0.358694
    193 O31       -11.3730   -1.6350   -2.0290 oh        1 MOL     -0.752870
    194 H89       -11.9380   -2.3610   -2.2940 ho        1 MOL      0.358694
    195 H90       -11.6840   -0.8950   -2.5530 ho        1 MOL      0.358694
@<TRIPOS>BOND
     1    1    2 1   
     2    1    4 1   
     3    1    5 1   
     4    1    6 1   
     5    2    3 2   
     6    2    7 1   
     7    7    8 1   
     8    7   15 1   
     9    8    9 1   
    10    8   11 1   
    11    8   16 1   
    12    9   10 2   
    13    9   19 1   
    14   11   12 1   
    15   11   17 1   
    16   11   18 1   
    17   12   13 1   
    18   12   14 1   
    19   19   20 1   
    20   19   27 1   
    21   20   21 1   
    22   20   23 1   
    23   20   28 1   
    24   21   22 2   
    25   21   38 1   
    26   23   24 1   
    27   23   25 1   
    28   23   29 1   
    29   24   26 1   
    30   24   30 1   
    31   24   31 1   
    32   25   32 1   
    33   25   33 1   
    34   25   34 1   
    35   26   35 1   
    36   26   36 1   
    37   26   37 1   
    38   38   39 1   
    39   38   46 1   
    40   39   40 1   
    41   39   42 1   
    42   39   47 1   
    43   40   41 2   
    44   40   50 1   
    45   42   43 1   
    46   42   48 1   
    47   42   49 1   
    48   43   44 1   
    49   43   45 1   
    50   50   51 1   
    51   50   54 1   
    52   51   52 1   
    53   51   55 1   
    54   51   56 1   
    55   52   53 2   
    56   52   57 1   
    57   57   58 1   
    58   57   65 1   
    59   58   59 1   
    60   58   61 1   
    61   58   66 1   
    62   59   60 2   
    63   59   69 1   
    64   61   62 1   
    65   61   67 1   
    66   61   68 1   
    67   62   63 1   
    68   62   64 1   
    69   69   70 1   
    70   69   73 1   
    71   70   71 1   
    72   70   74 1   
    73   70   75 1   
    74   71   72 2   
    75   71   76 1   
    76   76   77 1   
    77   76   85 1   
    78   77   78 1   
    79   77   80 1   
    80   77   86 1   
    81   78   79 2   
    82   78   93 1   
    83   80   81 1   
    84   80   87 1   
    85   80   88 1   
    86   81   82 1   
    87   81   89 1   
    88   81   90 1   
    89   82   83 1   
    90   82   84 2   
    91   83   91 1   
    92   83   92 1   
    93   93   94 1   
    94   93  100 1   
    95   94   95 1   
    96   94   97 1   
    97   94  101 1   
    98   95   96 2   
    99   95  109 1   
   100   97   98 1   
   101   97   99 1   
   102   97  102 1   
   103   98  103 1   
   104   98  104 1   
   105   98  105 1   
   106   99  106 1   
   107   99  107 1   
   108   99  108 1   
   109  109  110 1   
   110  109  117 1   
   111  110  111 1   
   112  110  113 1   
   113  110  118 1   
   114  111  112 2   
   115  111  123 1   
   116  113  114 1   
   117  113  119 1   
   118  113  120 1   
   119  114  115 1   
   120  114  116 2   
   121  115  121 1   
   122  115  122 1   
   123  123  124 1   
   124  123  135 1   
   125  124  125 1   
   126  124  127 1   
   127  124  136 1   
   128  125  126 2   
   129  125  144 1   
   130  127  128 1   
   131  127  137 1   
   132  127  138 1   
   133  128  129 ar  
   134  128  130 ar  
   135  129  131 ar  
   136  129  139 1   
   137  130  132 ar  
   138  130  140 1   
   139  131  133 ar  
   140  131  141 1   
   141  132  133 ar  
   142  132  142 1   
   143  133  134 1   
   144  134  143 1   
   145  144  145 1   
   146  144  153 1   
   147  145  146 1   
   148  145  148 1   
   149  145  154 1   
   150  146  147 2   
   151  146  159 1   
   152  148  149 1   
   153  148  155 1   
   154  148  156 1   
   155  149  150 1   
   156  149  157 1   
   157  149  158 1   
   158  150  151 1   
   159  150  152 1   
   160  159  160 1   
   161  159  168 1   
   162  160  161 1   
   163  160  163 1   
   164  160  169 1   
   165  161  162 2   
   166  161  174 1   
   167  163  164 1   
   168  163  170 1   
   169  163  171 1   
   170  164  165 1   
   171  164  172 1   
   172  164  173 1   
   173  165  166 1   
   174  165  167 1   
   175  174  175 1   
   176  174  179 1   
   177  175  176 1   
   178  175  177 1   
   179  175  178 1   
   180  181  182 1   
   181  181  183 1   
   182  184  185 1   
   183  184  186 1   
   184  187  188 1   
   185  187  189 1   
   186  190  191 1   
   187  190  192 1   
   188  193  194 1   
   189  193  195 1   
@<TRIPOS>SUBSTRUCTURE
     1 MOL         1 TEMP              0 ****  ****    0 ROOT
