@<TRIPOS>MOLECULE
MOL
  192   187     1     0     0
SMALL
resp


@<TRIPOS>ATOM
      1 C1         -6.8750   -2.9000    4.3380 c3        1 MOL     -0.104552
      2 C2         -6.2210   -2.2460    3.1370 c         1 MOL      0.771074
      3 O1         -5.7610   -2.9310    2.2550 o         1 MOL     -0.630528
      4 H1         -6.2960   -2.6760    5.2340 hc        1 MOL      0.017764
      5 H2         -7.8880   -2.5160    4.4550 hc        1 MOL      0.017764
      6 H3         -6.9100   -3.9800    4.1900 hc        1 MOL      0.017764
      7 N1         -6.1590   -0.9180    3.0900 n         1 MOL     -0.557920
      8 C3         -5.4480   -0.0400    2.1410 c3        1 MOL      0.468113
      9 C4         -3.9940   -0.4020    1.8490 c         1 MOL     -0.292198
     10 O2         -3.4030    0.1800    0.9810 o         1 MOL      0.023497
     11 C5         -5.3520    1.3650    2.8010 c3        1 MOL     -0.093192
     12 C6         -6.6950    1.9540    3.1430 c         1 MOL      0.670052
     13 O3         -7.3080    2.7720    2.4600 o         1 MOL     -0.680383
     14 O4         -7.2220    1.4010    4.1380 o         1 MOL     -0.680383
     15 H4         -6.5800   -0.3890    3.8400 hn        1 MOL      0.257872
     16 H5         -5.9150   -0.0650    1.1590 h1        1 MOL      0.004432
     17 H6         -4.9100    2.1140    2.1500 hc        1 MOL     -0.055771
     18 H7         -4.7540    1.2860    3.7070 hc        1 MOL     -0.055771
     19 N2         -3.3260   -1.2370    2.5780 n         1 MOL     -0.314642
     20 C7         -1.8230   -1.2740    2.6100 c3        1 MOL     -0.056509
     21 C8         -1.2530   -2.5620    2.0470 c         1 MOL      0.573718
     22 O5         -1.6410   -3.6960    2.3900 o         1 MOL     -0.515794
     23 C9         -1.3710   -1.1100    4.0680 c3        1 MOL      0.036554
     24 C10        -2.0680    0.2250    4.5780 c3        1 MOL      0.000096
     25 C11        -1.4070    0.8260    5.8700 c3        1 MOL     -0.152486
     26 C12         0.1110    1.0720    5.7360 c3        1 MOL     -0.085057
     27 N3          0.4580    1.8450    4.5060 n4        1 MOL     -0.252564
     28 H8         -3.7820   -1.9000    3.1810 hn        1 MOL      0.328997
     29 H9         -1.5100   -0.4370    1.9790 h1        1 MOL     -0.024253
     30 H10        -0.2910   -1.0600    4.1810 hc        1 MOL      0.038223
     31 H11        -1.7070   -1.9850    4.6290 hc        1 MOL      0.038223
     32 H12        -3.1410    0.0330    4.7090 hc        1 MOL      0.070356
     33 H13        -2.0650    1.0290    3.8370 hc        1 MOL      0.070356
     34 H14        -1.6540    0.2060    6.7330 hc        1 MOL      0.075716
     35 H15        -1.9990    1.7230    6.0360 hc        1 MOL      0.075716
     36 H16         0.6950    0.1520    5.7010 hx        1 MOL      0.117057
     37 H17         0.4270    1.5850    6.6320 hx        1 MOL      0.117057
     38 H18         0.1110    1.3660    3.6880 hn        1 MOL      0.298552
     39 H19         0.1360    2.7970    4.5210 hn        1 MOL      0.298552
     40 H20         1.4460    1.9440    4.3260 hn        1 MOL      0.298552
     41 N4         -0.2740   -2.5310    1.1470 n         1 MOL     -0.351462
     42 C13         0.4850   -1.4240    0.6640 c3        1 MOL     -0.152739
     43 C14         1.2600   -0.5550    1.7120 c         1 MOL      0.412496
     44 O6          0.9390    0.6260    1.9060 o         1 MOL     -0.567688
     45 C15        -0.2740   -0.6510   -0.4650 c3        1 MOL     -0.330031
     46 C16        -0.2070   -1.4470   -1.8180 c         1 MOL      0.384771
     47 O7          0.3620   -2.5430   -1.8600 o         1 MOL     -0.672346
     48 O8         -0.5050   -0.7250   -2.7980 o         1 MOL     -0.672346
     49 H21        -0.1840   -3.4300    0.6970 hn        1 MOL      0.197499
     50 H22         1.2580   -1.9390    0.0900 h1        1 MOL      0.079840
     51 H23         0.2260    0.3010   -0.6180 hc        1 MOL      0.356795
     52 H24        -1.2870   -0.3070   -0.2690 hc        1 MOL      0.356795
     53 N5          2.2680   -1.1070    2.3420 n         1 MOL     -0.355633
     54 C17         3.1000   -2.2360    1.9450 c3        1 MOL     -0.074750
     55 C18         3.8730   -2.7820    3.1470 c         1 MOL      0.512533
     56 O9          3.5650   -2.3450    4.2840 o         1 MOL     -0.554577
     57 H25         2.7150   -0.6410    3.1180 hn        1 MOL      0.312632
     58 H26         3.7790   -1.8860    1.1710 h1        1 MOL      0.130216
     59 H27         2.5560   -3.0780    1.5150 h1        1 MOL      0.130216
     60 N6          4.8880   -3.6180    2.8720 n         1 MOL     -0.428153
     61 C19         5.2220   -4.2170    1.6090 c3        1 MOL      0.195177
     62 C20         6.2830   -3.4630    0.8180 c         1 MOL      0.428262
     63 O10         7.0980   -2.7170    1.3200 o         1 MOL     -0.459577
     64 C21         5.6880   -5.6420    1.8710 c3        1 MOL     -0.155824
     65 C22         6.8920   -5.6840    2.8990 c         1 MOL      0.726752
     66 O11         7.9800   -5.3420    2.4760 o         1 MOL     -0.655492
     67 O12         6.7130   -6.0580    4.0980 o         1 MOL     -0.655492
     68 H28         5.3670   -3.9210    3.6990 hn        1 MOL      0.294482
     69 H29         4.3240   -4.1440    1.0080 h1        1 MOL     -0.070791
     70 H30         5.9900   -6.0660    0.9110 hc        1 MOL     -0.006789
     71 H31         4.9100   -6.2780    2.3030 hc        1 MOL     -0.006789
     72 N7          6.1540   -3.4350   -0.4780 n         1 MOL     -0.225659
     73 C23         6.9210   -2.6880   -1.5380 c3        1 MOL     -0.307275
     74 C24         6.5760   -1.2130   -1.7260 c         1 MOL      0.521509
     75 O13         7.5210   -0.5810   -2.1410 o         1 MOL     -0.526056
     76 H32         5.5320   -4.1360   -0.8290 hn        1 MOL      0.161869
     77 H33         6.7660   -3.2840   -2.4370 h1        1 MOL      0.156780
     78 H34         7.9800   -2.8540   -1.3560 h1        1 MOL      0.156780
     79 N8          5.3350   -0.8120   -1.4310 n         1 MOL     -0.250745
     80 C25         4.8730    0.5270   -1.7460 c3        1 MOL     -0.001425
     81 C26         5.1420    1.4760   -0.5910 c         1 MOL      0.371441
     82 O14         4.8040    1.1560    0.5650 o         1 MOL     -0.521882
     83 C27         3.3530    0.4880   -2.0930 c3        1 MOL      0.395134
     84 C28         3.0170   -0.3210   -3.3340 c3        1 MOL     -0.213093
     85 O15         3.0410    1.8120   -2.3710 oh        1 MOL     -0.641574
     86 H35         4.6820   -1.5030   -1.1040 hn        1 MOL      0.132146
     87 H36         5.4960    0.8260   -2.5860 h1        1 MOL      0.057215
     88 H37         2.7470    0.1560   -1.2610 h1        1 MOL      0.086752
     89 H38         2.2470    1.9770   -1.8540 ho        1 MOL      0.370265
     90 H39         3.3020    0.2160   -4.2450 hc        1 MOL      0.039255
     91 H40         3.5010   -1.2900   -3.4190 hc        1 MOL      0.039255
     92 H41         1.9290   -0.3780   -3.4320 hc        1 MOL      0.039255
     93 N9          5.7730    2.6270   -0.7880 n         1 MOL     -0.100604
     94 C29         5.8910    3.6670    0.2340 c3        1 MOL     -0.324828
     95 C30         4.6070    4.5650    0.2680 c         1 MOL      0.465973
     96 O16         4.6740    5.5080    1.0730 o         1 MOL     -0.559941
     97 C31         7.0950    4.5910   -0.1570 c3        1 MOL      0.163284
     98 C32         6.8700    5.4070   -1.3840 c3        1 MOL      0.167580
     99 C33         8.3730    3.7470   -0.3290 c3        1 MOL     -0.184022
    100 C34         7.8470    6.4960   -1.5840 c3        1 MOL     -0.098375
    101 H42         6.1210    2.8960   -1.6980 hn        1 MOL      0.195184
    102 H43         5.9620    3.1450    1.1840 h1        1 MOL      0.192404
    103 H44         7.3960    5.2910    0.6110 hc        1 MOL      0.018244
    104 H45         5.9050    5.8920   -1.5030 hc        1 MOL     -0.036708
    105 H46         6.9870    4.7480   -2.2520 hc        1 MOL     -0.036708
    106 H47         9.2560    4.3740   -0.4290 hc        1 MOL      0.050112
    107 H48         8.5370    3.1920    0.6030 hc        1 MOL      0.050112
    108 H49         8.3030    3.0470   -1.1670 hc        1 MOL      0.050112
    109 H50         7.7560    6.8520   -2.6090 hc        1 MOL      0.014472
    110 H51         7.7920    7.3300   -0.8820 hc        1 MOL      0.014472
    111 H52         8.8840    6.1600   -1.5980 hc        1 MOL      0.014472
    112 N10         3.5380    4.3700   -0.4790 n         1 MOL     -0.133031
    113 C35         2.2010    4.8940   -0.2210 c3        1 MOL      0.040463
    114 C36         1.1740    3.7970   -0.0780 c         1 MOL      0.438305
    115 O17         1.3270    2.7330   -0.7640 o         1 MOL     -0.441267
    116 C37         1.8000    5.9860   -1.2430 c3        1 MOL      0.336196
    117 C38         1.8680    5.4720   -2.7420 c3        1 MOL     -0.386291
    118 O18         2.7200    7.0680   -1.1180 oh        1 MOL     -0.561417
    119 H53         3.6810    3.7140   -1.2280 hn        1 MOL      0.068374
    120 H54         2.0850    5.3510    0.7670 h1        1 MOL      0.026622
    121 H55         0.8180    6.3950   -1.0220 h1        1 MOL     -0.017878
    122 H56         2.6960    7.3280   -0.1990 ho        1 MOL      0.355457
    123 H57         1.6450    6.3570   -3.3300 hc        1 MOL      0.122915
    124 H58         2.9230    5.3220   -2.9660 hc        1 MOL      0.122915
    125 H59         1.2300    4.6140   -2.9730 hc        1 MOL      0.122915
    126 N11         0.0870    3.9380    0.6970 n         1 MOL     -0.472099
    127 C39        -1.1610    3.1150    0.5500 c3        1 MOL      0.069672
    128 C40        -1.7780    3.1150   -0.9390 c         1 MOL      0.464978
    129 O19        -1.5020    3.9610   -1.7990 o         1 MOL     -0.529984
    130 C41        -2.2810    3.4990    1.3960 c3        1 MOL      0.234294
    131 C42        -2.8090    4.9190    1.2190 c3        1 MOL     -0.196393
    132 O20        -1.8610    3.4070    2.7110 oh        1 MOL     -0.657740
    133 H60        -0.0410    4.7280    1.3080 hn        1 MOL      0.315646
    134 H61        -0.8980    2.0970    0.8300 h1        1 MOL      0.090578
    135 H62        -3.1020    2.7870    1.2490 h1        1 MOL      0.202553
    136 H63        -2.6830    3.4820    3.1930 ho        1 MOL      0.408935
    137 H64        -2.0290    5.6770    1.1380 hc        1 MOL      0.041940
    138 H65        -3.3960    4.8510    0.2980 hc        1 MOL      0.041940
    139 H66        -3.5550    5.0940    2.0010 hc        1 MOL      0.041940
    140 N12        -2.6180    2.1190   -1.1730 n         1 MOL     -0.062422
    141 C43        -3.2590    1.8420   -2.4760 c3        1 MOL      0.180118
    142 C44        -3.6580    0.4130   -2.7860 c         1 MOL      0.510068
    143 O21        -3.8480    0.1130   -3.9380 o         1 MOL     -0.603620
    144 C45        -4.4840    2.7220   -2.5680 c3        1 MOL     -0.171591
    145 C46        -5.7840    2.2030   -1.9350 c3        1 MOL     -0.039121
    146 C47        -7.0370    3.0900   -1.9950 c3        1 MOL      0.001208
    147 C48        -6.6850    4.4490   -1.3370 c3        1 MOL      0.215224
    148 N13        -7.7670    5.4470   -1.3600 n4        1 MOL     -0.637070
    149 H67        -2.6040    1.3360   -0.5330 hn        1 MOL     -0.567220
    150 H68        -2.5740    2.1530   -3.2660 h1        1 MOL      0.095057
    151 H69        -4.5950    2.9250   -3.6400 hc        1 MOL      0.038656
    152 H70        -4.2310    3.7280   -2.2360 hc        1 MOL      0.038656
    153 H71        -5.5900    1.8800   -0.9150 hc        1 MOL      0.031463
    154 H72        -6.0810    1.3040   -2.4740 hc        1 MOL      0.031463
    155 H73        -7.8170    2.5660   -1.4420 hc        1 MOL      0.031913
    156 H74        -7.4910    3.3120   -2.9590 hc        1 MOL      0.031913
    157 H75        -5.9110    4.8920   -1.9600 hx        1 MOL      0.015631
    158 H76        -6.4100    4.2760   -0.2970 hx        1 MOL      0.015631
    159 H77        -8.1190    5.5070   -2.3020 hn        1 MOL      0.400360
    160 H78        -8.3790    5.1130   -0.6220 hn        1 MOL      0.400360
    161 H79        -7.3730    6.3020   -1.0030 hn        1 MOL      0.400360
    162 N14        -3.5840   -0.5130   -1.7660 n         1 MOL     -0.059179
    163 C49        -4.1150   -1.8460   -1.9410 c3        1 MOL      0.043399
    164 C50        -5.7080   -1.7210   -1.9750 c         1 MOL      0.194235
    165 O22        -6.3840   -1.3360   -1.0390 o         1 MOL     -0.422217
    166 C51        -3.5420   -2.8270   -0.8810 c3        1 MOL      0.775914
    167 C52        -4.0730   -4.3050   -0.9430 c3        1 MOL     -0.743468
    168 C53        -3.6650   -4.7470   -2.3620 c         1 MOL      0.763318
    169 O23        -4.4870   -4.6780   -3.2900 o         1 MOL     -0.729200
    170 O24        -2.4520   -5.0810   -2.5820 o         1 MOL     -0.729200
    171 H80        -3.6040   -0.1260   -0.8340 hn        1 MOL      0.093423
    172 H81        -3.8140   -2.1560   -2.9380 h1        1 MOL      0.052543
    173 H82        -3.7300   -2.4210    0.1110 hc        1 MOL     -0.213476
    174 H83        -2.4580   -2.7500   -0.8720 hc        1 MOL     -0.213476
    175 H84        -5.1250   -4.3400   -0.6800 hc        1 MOL      0.213873
    176 H85        -3.4440   -4.9250   -0.3060 hc        1 MOL      0.213873
    177 N15        -6.2640   -2.1890   -3.0970 n         1 MOL     -0.158198
    178 C54        -7.7180   -2.4990   -3.2410 c3        1 MOL     -0.197397
    179 H86        -7.9390   -2.7260   -4.2830 h1        1 MOL      0.097313
    180 H87        -7.9690   -3.3600   -2.6210 h1        1 MOL      0.097313
    181 H88        -8.3070   -1.6380   -2.9240 h1        1 MOL      0.097313
    182 H89        -5.6570   -2.3760   -3.8820 hn        1 MOL      0.284186
    183 Ca1        -0.0040   -4.7740   -3.1520 Ca        1 MOL      1.685517
    184 O25        -0.3180   -6.1720   -5.3870 oh        1 MOL     -0.908045
    185 H90        -0.9450   -5.8430   -6.0280 ho        1 MOL      0.448821
    186 H91         0.5260   -6.1430   -5.8510 ho        1 MOL      0.448821
    187 O26        -0.8870   -2.7780   -4.6200 oh        1 MOL     -0.908045
    188 H92        -1.3910   -2.5630   -5.4100 ho        1 MOL      0.448821
    189 H93        -0.7720   -1.9410   -4.1700 ho        1 MOL      0.448821
    190 O27         1.7940   -3.4150   -4.5170 oh        1 MOL     -0.908045
    191 H94         2.7280   -3.5080   -4.3330 ho        1 MOL      0.448821
    192 H95         1.7320   -2.6080   -5.0220 ho        1 MOL      0.448821
@<TRIPOS>BOND
     1    1    2 1   
     2    1    4 1   
     3    1    5 1   
     4    1    6 1   
     5    2    3 2   
     6    2    7 1   
     7    7    8 1   
     8    7   15 1   
     9    8    9 1   
    10    8   11 1   
    11    8   16 1   
    12    9   10 2   
    13    9   19 1   
    14   11   12 1   
    15   11   17 1   
    16   11   18 1   
    17   12   13 1   
    18   12   14 1   
    19   19   20 1   
    20   19   28 1   
    21   20   21 1   
    22   20   23 1   
    23   20   29 1   
    24   21   22 2   
    25   21   41 1   
    26   23   24 1   
    27   23   30 1   
    28   23   31 1   
    29   24   25 1   
    30   24   32 1   
    31   24   33 1   
    32   25   26 1   
    33   25   34 1   
    34   25   35 1   
    35   26   27 1   
    36   26   36 1   
    37   26   37 1   
    38   27   38 1   
    39   27   39 1   
    40   27   40 1   
    41   41   42 1   
    42   41   49 1   
    43   42   43 1   
    44   42   45 1   
    45   42   50 1   
    46   43   44 2   
    47   43   53 1   
    48   45   46 1   
    49   45   51 1   
    50   45   52 1   
    51   46   47 1   
    52   46   48 1   
    53   53   54 1   
    54   53   57 1   
    55   54   55 1   
    56   54   58 1   
    57   54   59 1   
    58   55   56 2   
    59   55   60 1   
    60   60   61 1   
    61   60   68 1   
    62   61   62 1   
    63   61   64 1   
    64   61   69 1   
    65   62   63 2   
    66   62   72 1   
    67   64   65 1   
    68   64   70 1   
    69   64   71 1   
    70   65   66 1   
    71   65   67 1   
    72   72   73 1   
    73   72   76 1   
    74   73   74 1   
    75   73   77 1   
    76   73   78 1   
    77   74   75 2   
    78   74   79 1   
    79   79   80 1   
    80   79   86 1   
    81   80   81 1   
    82   80   83 1   
    83   80   87 1   
    84   81   82 2   
    85   81   93 1   
    86   83   84 1   
    87   83   85 1   
    88   83   88 1   
    89   84   90 1   
    90   84   91 1   
    91   84   92 1   
    92   85   89 1   
    93   93   94 1   
    94   93  101 1   
    95   94   95 1   
    96   94   97 1   
    97   94  102 1   
    98   95   96 2   
    99   95  112 1   
   100   97   98 1   
   101   97   99 1   
   102   97  103 1   
   103   98  100 1   
   104   98  104 1   
   105   98  105 1   
   106   99  106 1   
   107   99  107 1   
   108   99  108 1   
   109  100  109 1   
   110  100  110 1   
   111  100  111 1   
   112  112  113 1   
   113  112  119 1   
   114  113  114 1   
   115  113  116 1   
   116  113  120 1   
   117  114  115 2   
   118  114  126 1   
   119  116  117 1   
   120  116  118 1   
   121  116  121 1   
   122  117  123 1   
   123  117  124 1   
   124  117  125 1   
   125  118  122 1   
   126  126  127 1   
   127  126  133 1   
   128  127  128 1   
   129  127  130 1   
   130  127  134 1   
   131  128  129 2   
   132  128  140 1   
   133  130  131 1   
   134  130  132 1   
   135  130  135 1   
   136  131  137 1   
   137  131  138 1   
   138  131  139 1   
   139  132  136 1   
   140  140  141 1   
   141  140  149 1   
   142  141  142 1   
   143  141  144 1   
   144  141  150 1   
   145  142  143 2   
   146  142  162 1   
   147  144  145 1   
   148  144  151 1   
   149  144  152 1   
   150  145  146 1   
   151  145  153 1   
   152  145  154 1   
   153  146  147 1   
   154  146  155 1   
   155  146  156 1   
   156  147  148 1   
   157  147  157 1   
   158  147  158 1   
   159  148  159 1   
   160  148  160 1   
   161  148  161 1   
   162  162  163 1   
   163  162  171 1   
   164  163  164 1   
   165  163  166 1   
   166  163  172 1   
   167  164  165 2   
   168  164  177 1   
   169  166  167 1   
   170  166  173 1   
   171  166  174 1   
   172  167  168 1   
   173  167  175 1   
   174  167  176 1   
   175  168  169 1   
   176  168  170 1   
   177  177  178 1   
   178  177  182 1   
   179  178  179 1   
   180  178  180 1   
   181  178  181 1   
   182  184  185 1   
   183  184  186 1   
   184  187  188 1   
   185  187  189 1   
   186  190  191 1   
   187  190  192 1   
@<TRIPOS>SUBSTRUCTURE
     1 MOL         1 TEMP              0 ****  ****    0 ROOT
