@<TRIPOS>MOLECULE
MOL
  192   187     1     0     0
SMALL
resp


@<TRIPOS>ATOM
      1 C1          4.5640    1.8160    6.0420 c3        1 MOL     -0.413745
      2 C2          4.3660    1.7240    4.5000 c         1 MOL      0.622516
      3 O1          4.1670    2.7030    3.8080 o         1 MOL     -0.546291
      4 H1          3.6800    1.4260    6.5450 hc        1 MOL      0.105080
      5 H2          5.4350    1.2290    6.3320 hc        1 MOL      0.105080
      6 H3          4.7150    2.8570    6.3270 hc        1 MOL      0.105080
      7 N1          4.5850    0.5290    3.9750 n         1 MOL     -0.384520
      8 C3          4.5590    0.2810    2.5090 c3        1 MOL     -0.257050
      9 C4          3.1040    0.1940    1.9730 c         1 MOL      0.355430
     10 O2          2.8490    0.2390    0.7640 o         1 MOL     -0.399275
     11 C5          5.3160   -1.0000    2.1170 c3        1 MOL     -0.003421
     12 C6          5.2660   -2.1840    3.0150 c         1 MOL      0.715266
     13 O3          5.3500   -3.2710    2.4850 o         1 MOL     -0.722800
     14 O4          5.2220   -2.0810    4.3040 o         1 MOL     -0.722800
     15 H4          4.7380   -0.2950    4.5490 hn        1 MOL      0.256127
     16 H5          5.0670    1.1020    2.0160 h1        1 MOL      0.223145
     17 H6          6.3810   -0.7710    2.1070 hc        1 MOL      0.033402
     18 H7          5.0590   -1.1280    1.0660 hc        1 MOL      0.033402
     19 N2          2.1500   -0.0210    2.9060 n         1 MOL     -0.176872
     20 C7          0.7620   -0.2220    2.6510 c3        1 MOL      0.034292
     21 C8          0.0010    1.0710    2.8360 c         1 MOL      0.585336
     22 O5          0.1330    1.7250    3.8580 o         1 MOL     -0.582442
     23 C9          0.1540   -1.2700    3.5350 c3        1 MOL     -0.133592
     24 C10         0.5250   -2.7040    3.1160 c3        1 MOL      0.064666
     25 C11        -0.2480   -3.6350    3.9640 c3        1 MOL      0.116922
     26 C12        -0.0160   -5.0980    3.5170 c3        1 MOL      0.053827
     27 N3          1.3020   -5.6810    3.8520 n4        1 MOL     -0.507136
     28 H8          2.3550   -0.1090    3.8920 hn        1 MOL      0.198422
     29 H9          0.5820   -0.5840    1.6410 h1        1 MOL      0.056431
     30 H10        -0.9120   -1.0860    3.4230 hc        1 MOL      0.054003
     31 H11         0.4030   -1.1280    4.5910 hc        1 MOL      0.054003
     32 H12         1.6100   -2.8370    3.1130 hc        1 MOL     -0.021403
     33 H13         0.1410   -2.9850    2.1330 hc        1 MOL     -0.021403
     34 H14        -1.3030   -3.4150    3.8460 hc        1 MOL     -0.004423
     35 H15        -0.0080   -3.5690    5.0310 hc        1 MOL     -0.004423
     36 H16        -0.1630   -5.2110    2.4350 hx        1 MOL      0.066147
     37 H17        -0.7540   -5.7690    3.9620 hx        1 MOL      0.066147
     38 H18         1.3750   -6.5580    3.3500 hn        1 MOL      0.361985
     39 H19         2.1070   -5.1250    3.6170 hn        1 MOL      0.361985
     40 H20         1.2950   -5.8180    4.8530 hn        1 MOL      0.361985
     41 N4         -0.7590    1.5610    1.8610 n         1 MOL     -0.353302
     42 C13        -1.3540    0.9570    0.6860 c3        1 MOL      0.015842
     43 C14        -1.8650   -0.4640    0.7490 c         1 MOL      0.453032
     44 O6         -1.3360   -1.3570    0.1020 o         1 MOL     -0.576904
     45 C15        -0.3790    1.2480   -0.5070 c3        1 MOL     -0.025346
     46 C16        -0.0900    2.7510   -0.4750 c         1 MOL      0.728937
     47 O7         -0.9460    3.5800   -0.2050 o         1 MOL     -0.795141
     48 O8          1.0450    3.1590   -0.9190 o         1 MOL     -0.795141
     49 H21        -1.2060    2.4290    2.1040 hn        1 MOL      0.205607
     50 H22        -2.2470    1.5170    0.4480 h1        1 MOL      0.092819
     51 H23        -0.7960    1.0570   -1.5020 hc        1 MOL      0.043950
     52 H24         0.5530    0.7350   -0.3040 hc        1 MOL      0.043950
     53 N5         -2.7770   -0.8230    1.5940 n         1 MOL     -0.245788
     54 C17        -3.5890   -0.0320    2.4320 c3        1 MOL      0.143070
     55 C18        -4.7420   -0.8640    3.1380 c         1 MOL      0.440050
     56 O9         -4.5770   -1.9570    3.6030 o         1 MOL     -0.545926
     57 H25        -2.9650   -1.8180    1.5530 hn        1 MOL      0.211389
     58 H26        -4.0770    0.6340    1.7120 h1        1 MOL     -0.000727
     59 H27        -3.0010    0.5440    3.1410 h1        1 MOL     -0.000727
     60 N6         -5.9040   -0.3460    3.3460 n         1 MOL     -0.357713
     61 C19        -6.6110    0.8510    2.7870 c3        1 MOL     -0.026883
     62 C20        -7.4900    0.5930    1.5480 c         1 MOL      0.641505
     63 O10        -7.7480   -0.5340    1.2580 o         1 MOL     -0.471249
     64 C21        -7.2700    1.5780    3.9340 c3        1 MOL     -0.244306
     65 C22        -8.1030    0.6080    4.8250 c         1 MOL      0.747881
     66 O11        -9.2390    0.3090    4.4490 o         1 MOL     -0.667864
     67 O12        -7.6100    0.1270    5.8400 o         1 MOL     -0.667864
     68 H28        -6.5250   -0.8980    3.9170 hn        1 MOL      0.328287
     69 H29        -5.8530    1.5430    2.4480 h1        1 MOL      0.041747
     70 H30        -8.0130    2.2740    3.5370 hc        1 MOL      0.034261
     71 H31        -6.5850    2.1860    4.5230 hc        1 MOL      0.034261
     72 N7         -7.8040    1.7210    0.8260 n         1 MOL     -0.469122
     73 C23        -8.7430    1.6210   -0.3300 c3        1 MOL     -0.154189
     74 C24        -8.0710    1.2120   -1.6770 c         1 MOL      0.485785
     75 O13        -8.7100    0.7520   -2.5920 o         1 MOL     -0.514804
     76 H32        -7.4470    2.6550    0.9600 hn        1 MOL      0.302689
     77 H33        -9.1170    2.6280   -0.4980 h1        1 MOL      0.120741
     78 H34        -9.6380    1.0170   -0.1690 h1        1 MOL      0.120741
     79 N8         -6.7560    1.4200   -1.7590 n         1 MOL     -0.303080
     80 C25        -5.9000    0.6080   -2.6070 c3        1 MOL      0.110505
     81 C26        -5.1650   -0.4200   -1.7730 c         1 MOL      0.501837
     82 O14        -4.8350   -0.1190   -0.6020 o         1 MOL     -0.512992
     83 C27        -4.9830    1.4630   -3.4740 c3        1 MOL      0.213804
     84 C28        -3.8860    2.1720   -2.6960 c3        1 MOL     -0.218228
     85 O15        -5.5720    2.3620   -4.4200 oh        1 MOL     -0.661871
     86 H35        -6.2980    1.9310   -1.0220 hn        1 MOL      0.196491
     87 H36        -6.5970    0.1710   -3.3100 h1        1 MOL      0.085043
     88 H37        -4.4650    0.7190   -4.0720 h1        1 MOL      0.025024
     89 H38        -4.9990    2.8060   -5.0460 ho        1 MOL      0.436901
     90 H39        -3.4490    1.6180   -1.8630 hc        1 MOL      0.042054
     91 H40        -3.1170    2.5010   -3.3970 hc        1 MOL      0.042054
     92 H41        -4.1960    3.0910   -2.1980 hc        1 MOL      0.042054
     93 N9         -4.8170   -1.6110   -2.2370 n         1 MOL     -0.457734
     94 C29        -3.9920   -2.5520   -1.4750 c3        1 MOL      0.050548
     95 C30        -2.7050   -3.0160   -2.2800 c         1 MOL      0.206259
     96 O16        -2.1670   -4.1270   -2.0770 o         1 MOL     -0.467437
     97 C31        -4.8590   -3.7310   -1.0640 c3        1 MOL     -0.033061
     98 C32        -5.5970   -4.4760   -2.2460 c3        1 MOL      0.249490
     99 C33        -5.8350   -3.2670    0.0640 c3        1 MOL     -0.200188
    100 C34        -4.7700   -4.8720   -3.4780 c3        1 MOL     -0.277216
    101 H42        -5.0760   -1.9090   -3.1600 hn        1 MOL      0.260269
    102 H43        -3.5880   -2.2170   -0.5200 h1        1 MOL      0.198740
    103 H44        -4.2130   -4.4340   -0.5230 hc        1 MOL      0.030693
    104 H45        -6.4540   -3.8920   -2.5930 hc        1 MOL     -0.044159
    105 H46        -6.0950   -5.3310   -1.7980 hc        1 MOL     -0.044159
    106 H47        -6.5890   -2.6270   -0.3830 hc        1 MOL      0.058909
    107 H48        -6.4770   -4.0280    0.5000 hc        1 MOL      0.058909
    108 H49        -5.4220   -2.6900    0.8930 hc        1 MOL      0.058909
    109 H50        -4.4150   -3.9520   -3.9360 hc        1 MOL      0.068553
    110 H51        -3.9560   -5.4210   -3.0050 hc        1 MOL      0.068553
    111 H52        -5.3680   -5.4160   -4.2120 hc        1 MOL      0.068553
    112 N10        -2.2070   -2.0580   -3.1130 n         1 MOL     -0.020024
    113 C35        -1.0900   -2.2600   -4.0020 c3        1 MOL     -0.455330
    114 C36         0.2990   -2.3140   -3.3200 c         1 MOL      0.510755
    115 O17         1.3080   -2.6720   -3.9900 o         1 MOL     -0.545497
    116 C37        -1.1840   -1.2120   -5.1540 c3        1 MOL      0.328425
    117 C38        -1.0870    0.2610   -4.6120 c3        1 MOL     -0.107756
    118 O18        -2.4000   -1.3350   -5.8870 oh        1 MOL     -0.624769
    119 H53        -2.7310   -1.1870   -3.1240 hn        1 MOL      0.161006
    120 H54        -1.4190   -3.2010   -4.4390 h1        1 MOL      0.177426
    121 H55        -0.3550   -1.3500   -5.8420 h1        1 MOL      0.050142
    122 H56        -2.2990   -2.1660   -6.3640 ho        1 MOL      0.395676
    123 H57        -2.0300    0.5810   -4.1600 hc        1 MOL      0.042390
    124 H58        -0.2350    0.4880   -3.9770 hc        1 MOL      0.042390
    125 H59        -0.8450    0.8090   -5.5190 hc        1 MOL      0.042390
    126 N11         0.3630   -1.9820   -2.0530 n         1 MOL     -0.095179
    127 C39         1.6000   -1.9240   -1.2210 c3        1 MOL     -0.030691
    128 C40         2.8350   -1.3230   -1.9220 c         1 MOL      0.368038
    129 O19         2.7620   -0.5260   -2.9170 o         1 MOL     -0.487533
    130 C41         2.0090   -3.3300   -0.7070 c3        1 MOL      0.312840
    131 C42         0.8700   -4.3460   -0.4630 c3        1 MOL     -0.260596
    132 O20         2.7370   -3.0610    0.4890 oh        1 MOL     -0.596602
    133 H60        -0.4030   -1.4640   -1.6640 hn        1 MOL      0.103834
    134 H61         1.3930   -1.3660   -0.3110 h1        1 MOL      0.107706
    135 H62         2.6540   -3.7290   -1.4920 h1        1 MOL     -0.036396
    136 H63         3.1020   -3.8660    0.8630 ho        1 MOL      0.364036
    137 H64         0.1000   -3.9990    0.2240 hc        1 MOL      0.069730
    138 H65         0.4480   -4.5790   -1.4460 hc        1 MOL      0.069730
    139 H66         1.2930   -5.3100   -0.1900 hc        1 MOL      0.069730
    140 N12         4.0420   -1.5020   -1.3320 n         1 MOL     -0.029600
    141 C43         5.3710   -1.2120   -1.8680 c3        1 MOL     -0.336612
    142 C44         6.0350    0.1730   -1.6250 c         1 MOL      0.560355
    143 O21         7.0550    0.5010   -2.2240 o         1 MOL     -0.589266
    144 C45         6.3230   -2.3260   -1.4510 c3        1 MOL      0.228690
    145 C46         5.9640   -3.7900   -1.7890 c3        1 MOL     -0.126318
    146 C47         7.0150   -4.8640   -1.6050 c3        1 MOL      0.018806
    147 C48         8.2570   -4.7040   -2.4220 c3        1 MOL      0.005949
    148 N13         9.1370   -5.8500   -2.4380 n4        1 MOL     -0.249744
    149 H67         4.0400   -1.9790   -0.4420 hn        1 MOL      0.201626
    150 H68         5.2160   -1.2690   -2.9490 h1        1 MOL      0.144896
    151 H69         6.5100   -2.2830   -0.3790 hc        1 MOL     -0.045648
    152 H70         7.2970   -2.1220   -1.8860 hc        1 MOL     -0.045648
    153 H71         5.5040   -3.7680   -2.7750 hc        1 MOL      0.018109
    154 H72         5.1490   -3.9930   -1.1020 hc        1 MOL      0.018109
    155 H73         6.5760   -5.8460   -1.8200 hc        1 MOL      0.030822
    156 H74         7.1590   -4.9730   -0.5360 hc        1 MOL      0.030822
    157 H75         8.8510   -3.8340   -2.1220 hx        1 MOL      0.092100
    158 H76         7.9800   -4.6040   -3.4690 hx        1 MOL      0.092100
    159 H77         8.7240   -6.6830   -2.8410 hn        1 MOL      0.259553
    160 H78         9.9840   -5.6460   -2.9470 hn        1 MOL      0.259553
    161 H79         9.4840   -6.0690   -1.5100 hn        1 MOL      0.259553
    162 N14         5.4020    1.0060   -0.8490 n         1 MOL      0.059031
    163 C49         5.8460    2.4250   -0.7370 c3        1 MOL     -0.521431
    164 C50         7.0450    2.6810    0.2710 c         1 MOL      0.538182
    165 O22         6.9340    2.3200    1.3990 o         1 MOL     -0.471031
    166 C51         4.6130    3.3370   -0.4900 c3        1 MOL      0.112049
    167 C52         4.6770    4.5720   -1.3790 c3        1 MOL      0.386914
    168 C53         3.3390    5.2900   -1.2980 c         1 MOL      0.409188
    169 O23         2.6810    5.3650   -2.3770 o         1 MOL     -0.733217
    170 O24         2.9330    5.6080   -0.1270 o         1 MOL     -0.733217
    171 H80         4.5510    0.6870   -0.4070 hn        1 MOL     -0.015192
    172 H81         6.2640    2.6280   -1.7210 h1        1 MOL      0.128378
    173 H82         4.5270    3.6990    0.5310 hc        1 MOL      0.073751
    174 H83         3.7770    2.7250   -0.8320 hc        1 MOL      0.073751
    175 H84         4.7810    4.2460   -2.4130 hc        1 MOL     -0.093542
    176 H85         5.5400    5.2070   -1.1560 hc        1 MOL     -0.093542
    177 N15         8.1590    3.2720   -0.1810 n         1 MOL     -0.237765
    178 C54         9.4200    3.3920    0.6280 c3        1 MOL     -0.408661
    179 H86        10.1390    4.0100    0.0900 h1        1 MOL      0.155641
    180 H87         9.1930    3.8530    1.5890 h1        1 MOL      0.155641
    181 H88         9.8430    2.4010    0.7910 h1        1 MOL      0.155641
    182 H89         8.1590    3.5540   -1.1580 hn        1 MOL      0.238194
    183 Ca1         0.4570    5.7190   -0.8750 Ca        1 MOL      1.774866
    184 O25         0.5870    7.8370   -2.8080 oh        1 MOL     -0.862126
    185 H90         0.5490    7.5750   -3.7350 ho        1 MOL      0.435335
    186 H91         1.2600    8.5260   -2.7870 ho        1 MOL      0.435335
    187 O26        -1.3860    5.4530   -2.9120 oh        1 MOL     -0.862126
    188 H92        -2.1660    5.7000   -3.4110 ho        1 MOL      0.435335
    189 H93        -1.1930    4.5560   -3.2000 ho        1 MOL      0.435335
    190 O27         0.4800    5.0380    1.8200 oh        1 MOL     -0.862126
    191 H94        -0.3680    4.7270    2.1490 ho        1 MOL      0.435335
    192 H95         1.1200    4.7080    2.4400 ho        1 MOL      0.435335
@<TRIPOS>BOND
     1    1    2 1   
     2    1    4 1   
     3    1    5 1   
     4    1    6 1   
     5    2    3 2   
     6    2    7 1   
     7    7    8 1   
     8    7   15 1   
     9    8    9 1   
    10    8   11 1   
    11    8   16 1   
    12    9   10 2   
    13    9   19 1   
    14   11   12 1   
    15   11   17 1   
    16   11   18 1   
    17   12   13 1   
    18   12   14 1   
    19   19   20 1   
    20   19   28 1   
    21   20   21 1   
    22   20   23 1   
    23   20   29 1   
    24   21   22 2   
    25   21   41 1   
    26   23   24 1   
    27   23   30 1   
    28   23   31 1   
    29   24   25 1   
    30   24   32 1   
    31   24   33 1   
    32   25   26 1   
    33   25   34 1   
    34   25   35 1   
    35   26   27 1   
    36   26   36 1   
    37   26   37 1   
    38   27   38 1   
    39   27   39 1   
    40   27   40 1   
    41   41   42 1   
    42   41   49 1   
    43   42   43 1   
    44   42   45 1   
    45   42   50 1   
    46   43   44 2   
    47   43   53 1   
    48   45   46 1   
    49   45   51 1   
    50   45   52 1   
    51   46   47 1   
    52   46   48 1   
    53   53   54 1   
    54   53   57 1   
    55   54   55 1   
    56   54   58 1   
    57   54   59 1   
    58   55   56 2   
    59   55   60 1   
    60   60   61 1   
    61   60   68 1   
    62   61   62 1   
    63   61   64 1   
    64   61   69 1   
    65   62   63 2   
    66   62   72 1   
    67   64   65 1   
    68   64   70 1   
    69   64   71 1   
    70   65   66 1   
    71   65   67 1   
    72   72   73 1   
    73   72   76 1   
    74   73   74 1   
    75   73   77 1   
    76   73   78 1   
    77   74   75 2   
    78   74   79 1   
    79   79   80 1   
    80   79   86 1   
    81   80   81 1   
    82   80   83 1   
    83   80   87 1   
    84   81   82 2   
    85   81   93 1   
    86   83   84 1   
    87   83   85 1   
    88   83   88 1   
    89   84   90 1   
    90   84   91 1   
    91   84   92 1   
    92   85   89 1   
    93   93   94 1   
    94   93  101 1   
    95   94   95 1   
    96   94   97 1   
    97   94  102 1   
    98   95   96 2   
    99   95  112 1   
   100   97   98 1   
   101   97   99 1   
   102   97  103 1   
   103   98  100 1   
   104   98  104 1   
   105   98  105 1   
   106   99  106 1   
   107   99  107 1   
   108   99  108 1   
   109  100  109 1   
   110  100  110 1   
   111  100  111 1   
   112  112  113 1   
   113  112  119 1   
   114  113  114 1   
   115  113  116 1   
   116  113  120 1   
   117  114  115 2   
   118  114  126 1   
   119  116  117 1   
   120  116  118 1   
   121  116  121 1   
   122  117  123 1   
   123  117  124 1   
   124  117  125 1   
   125  118  122 1   
   126  126  127 1   
   127  126  133 1   
   128  127  128 1   
   129  127  130 1   
   130  127  134 1   
   131  128  129 2   
   132  128  140 1   
   133  130  131 1   
   134  130  132 1   
   135  130  135 1   
   136  131  137 1   
   137  131  138 1   
   138  131  139 1   
   139  132  136 1   
   140  140  141 1   
   141  140  149 1   
   142  141  142 1   
   143  141  144 1   
   144  141  150 1   
   145  142  143 2   
   146  142  162 1   
   147  144  145 1   
   148  144  151 1   
   149  144  152 1   
   150  145  146 1   
   151  145  153 1   
   152  145  154 1   
   153  146  147 1   
   154  146  155 1   
   155  146  156 1   
   156  147  148 1   
   157  147  157 1   
   158  147  158 1   
   159  148  159 1   
   160  148  160 1   
   161  148  161 1   
   162  162  163 1   
   163  162  171 1   
   164  163  164 1   
   165  163  166 1   
   166  163  172 1   
   167  164  165 2   
   168  164  177 1   
   169  166  167 1   
   170  166  173 1   
   171  166  174 1   
   172  167  168 1   
   173  167  175 1   
   174  167  176 1   
   175  168  169 1   
   176  168  170 1   
   177  177  178 1   
   178  177  182 1   
   179  178  179 1   
   180  178  180 1   
   181  178  181 1   
   182  184  185 1   
   183  184  186 1   
   184  187  188 1   
   185  187  189 1   
   186  190  191 1   
   187  190  192 1   
@<TRIPOS>SUBSTRUCTURE
     1 MOL         1 TEMP              0 ****  ****    0 ROOT
