@<TRIPOS>MOLECULE
MOL
  192   187     1     0     0
SMALL
resp


@<TRIPOS>ATOM
      1 C1        -11.3590   -2.5050   -1.3750 c3        1 MOL     -0.540856
      2 C2        -10.0550   -1.7920   -1.2540 c         1 MOL      0.748995
      3 O1         -9.3090   -1.6110   -2.2430 o         1 MOL     -0.630900
      4 H1        -11.2600   -3.5130   -0.9710 hc        1 MOL      0.136346
      5 H2        -12.1230   -1.9630   -0.8160 hc        1 MOL      0.136346
      6 H3        -11.6470   -2.5610   -2.4240 hc        1 MOL      0.136346
      7 N1         -9.7630   -1.2520   -0.1000 n         1 MOL     -0.445724
      8 C3         -8.3860   -0.7850    0.1620 c3        1 MOL     -0.035900
      9 C4         -7.6460   -2.0090    0.7460 c         1 MOL      0.310294
     10 O2         -8.0420   -2.5250    1.7750 o         1 MOL     -0.470637
     11 C5         -8.3010    0.4030    1.1490 c3        1 MOL     -0.145413
     12 C6         -9.2590    1.5410    0.8490 c         1 MOL      0.765533
     13 O3        -10.4730    1.4030    0.9170 o         1 MOL     -0.677898
     14 O4         -8.7460    2.6240    0.6620 o         1 MOL     -0.677898
     15 H4        -10.4290   -1.3820    0.6530 hn        1 MOL      0.287927
     16 H5         -7.9370   -0.4210   -0.7550 h1        1 MOL      0.105814
     17 H6         -7.2460    0.6740    1.1290 hc        1 MOL      0.059884
     18 H7         -8.4690    0.1760    2.2070 hc        1 MOL      0.059884
     19 N2         -6.5750   -2.5000    0.1010 n         1 MOL     -0.129930
     20 C7         -5.7750   -3.7180    0.4060 c3        1 MOL      0.085186
     21 C8         -4.5270   -3.5600    1.3280 c         1 MOL      0.549028
     22 O5         -4.2970   -4.3320    2.2590 o         1 MOL     -0.552629
     23 C9         -5.1670   -4.3190   -0.9160 c3        1 MOL     -0.386280
     24 C10        -6.1980   -4.9130   -1.8990 c3        1 MOL      0.057424
     25 C11        -6.8720   -6.1330   -1.2980 c3        1 MOL     -0.068942
     26 C12        -8.1400   -6.4530   -2.0870 c3        1 MOL     -0.038605
     27 N3         -9.0700   -7.3380   -1.3390 n4        1 MOL     -0.082752
     28 H8         -6.3430   -1.9620   -0.7180 hn        1 MOL      0.183210
     29 H9         -6.3230   -4.4540    0.9860 h1        1 MOL      0.031812
     30 H10        -4.5220   -5.1800   -0.7410 hc        1 MOL      0.144819
     31 H11        -4.6390   -3.5740   -1.5040 hc        1 MOL      0.144819
     32 H12        -5.6040   -5.2570   -2.7540 hc        1 MOL      0.023677
     33 H13        -6.8660   -4.1160   -2.2290 hc        1 MOL      0.023677
     34 H14        -7.1600   -6.0090   -0.2530 hc        1 MOL      0.065702
     35 H15        -6.2170   -6.9970   -1.3630 hc        1 MOL      0.065702
     36 H16        -7.8170   -7.0020   -2.9760 hx        1 MOL      0.067996
     37 H17        -8.6260   -5.4990   -2.2680 hx        1 MOL      0.067996
     38 H18        -9.8570   -7.6590   -1.8840 hn        1 MOL      0.227434
     39 H19        -8.5540   -8.2030   -1.2250 hn        1 MOL      0.227434
     40 H20        -9.3520   -7.0200   -0.4150 hn        1 MOL      0.227434
     41 N4         -3.7060   -2.5010    1.2180 n         1 MOL     -0.446098
     42 C13        -3.6900   -1.3760    0.2060 c3        1 MOL     -0.089545
     43 C14        -3.7720    0.0420    0.8550 c         1 MOL      0.570292
     44 O6         -3.6720    0.1790    2.0910 o         1 MOL     -0.489116
     45 C15        -2.3580   -1.5390   -0.5530 c3        1 MOL     -0.243081
     46 C16        -1.1360   -1.6750    0.3400 c         1 MOL      0.798398
     47 O7         -0.7300   -0.7050    0.9390 o         1 MOL     -0.656434
     48 O8         -0.6370   -2.8130    0.4240 o         1 MOL     -0.656434
     49 H21        -2.9250   -2.4780    1.8570 hn        1 MOL      0.351792
     50 H22        -4.5970   -1.4150   -0.3950 h1        1 MOL      0.083877
     51 H23        -2.2600   -0.7220   -1.2630 hc        1 MOL      0.046885
     52 H24        -2.4340   -2.4950   -1.0840 hc        1 MOL      0.046885
     53 N5         -3.9860    1.1310    0.1050 n         1 MOL     -0.506786
     54 C17        -4.0230    2.5480    0.4500 c3        1 MOL      0.069747
     55 C18        -2.6980    3.3000    0.6350 c         1 MOL      0.303290
     56 O9         -1.6700    2.6810    0.5020 o         1 MOL     -0.360102
     57 H25        -4.2360    0.9210   -0.8510 hn        1 MOL      0.283510
     58 H26        -4.6620    2.5630    1.3280 h1        1 MOL      0.084449
     59 H27        -4.6760    3.1160   -0.2020 h1        1 MOL      0.084449
     60 N6         -2.8550    4.6240    0.9780 n         1 MOL     -0.469286
     61 C19        -1.7570    5.6000    1.2400 c3        1 MOL      0.351727
     62 C20        -2.1770    7.0110    0.7820 c         1 MOL      0.442725
     63 O10        -3.2740    7.4740    0.9900 o         1 MOL     -0.515040
     64 C21        -1.2940    5.6520    2.6650 c3        1 MOL     -0.257344
     65 C22        -0.9520    4.2630    3.2330 c         1 MOL      0.657183
     66 O11         0.1910    3.7190    2.9980 o         1 MOL     -0.663035
     67 O12        -1.7970    3.5790    3.8940 o         1 MOL     -0.663035
     68 H28        -3.7870    4.9820    1.0620 hn        1 MOL      0.303185
     69 H29        -0.8810    5.2730    0.6910 h1        1 MOL     -0.029482
     70 H30        -2.1610    6.0540    3.1840 hc        1 MOL      0.066243
     71 H31        -0.4380    6.3210    2.7060 hc        1 MOL      0.066243
     72 N7         -1.2580    7.8030    0.2230 n         1 MOL     -0.449696
     73 C23         0.2030    7.5550   -0.0090 c3        1 MOL      0.025495
     74 C24         0.5590    6.3750   -0.9980 c         1 MOL      0.596494
     75 O13        -0.2320    6.0750   -1.8960 o         1 MOL     -0.487924
     76 H32        -1.5760    8.7630    0.2420 hn        1 MOL      0.318629
     77 H33         0.5920    7.2620    0.9670 h1        1 MOL      0.037611
     78 H34         0.6800    8.4870   -0.3120 h1        1 MOL      0.037611
     79 N8          1.7440    5.8760   -0.7500 n         1 MOL     -0.643233
     80 C25         2.2960    4.8220   -1.5910 c3        1 MOL      0.113499
     81 C26         1.6110    3.5130   -1.5200 c         1 MOL      0.697435
     82 O14         1.0570    3.1730   -0.5020 o         1 MOL     -0.769687
     83 C27         3.7530    4.5970   -1.3420 c3        1 MOL      0.482467
     84 C28         4.5440    5.8370   -1.6030 c3        1 MOL     -0.315007
     85 O15         4.3510    3.5800   -2.1100 oh        1 MOL     -0.651467
     86 H35         2.4300    6.3080   -0.1570 hn        1 MOL      0.339198
     87 H36         2.1970    5.1140   -2.6350 h1        1 MOL      0.048371
     88 H37         3.9260    4.4330   -0.2830 h1        1 MOL     -0.037345
     89 H38         4.5490    2.8580   -1.5020 ho        1 MOL      0.389583
     90 H39         5.5980    5.5910   -1.4960 hc        1 MOL      0.079842
     91 H40         4.4150    6.2220   -2.6170 hc        1 MOL      0.079842
     92 H41         4.3140    6.5890   -0.8520 hc        1 MOL      0.079842
     93 N9          1.4650    2.8750   -2.6670 n         1 MOL     -0.581818
     94 C29         0.6970    1.6000   -2.9960 c3        1 MOL     -0.008837
     95 C30         1.2310    0.4160   -2.1340 c         1 MOL      0.544337
     96 O16         1.3470    0.4770   -0.9240 o         1 MOL     -0.456707
     97 C31        -0.8220    1.7900   -2.7630 c3        1 MOL      0.394935
     98 C32        -1.4860    3.1760   -2.9340 c3        1 MOL     -0.159582
     99 C33        -1.5690    0.6320   -3.5880 c3        1 MOL     -0.663774
    100 C34        -1.2050    3.9080   -4.2410 c3        1 MOL     -0.168908
    101 H42         2.0310    3.1060   -3.4760 hn        1 MOL      0.312356
    102 H43         0.9480    1.3250   -4.0200 h1        1 MOL      0.061809
    103 H44        -0.9170    1.5090   -1.7170 hc        1 MOL     -0.115435
    104 H45        -1.1280    3.7500   -2.0710 hc        1 MOL      0.093857
    105 H46        -2.5530    2.9750   -2.8750 hc        1 MOL      0.093857
    106 H47        -2.4300    0.2380   -3.0690 hc        1 MOL      0.160624
    107 H48        -2.0800    1.1200   -4.4280 hc        1 MOL      0.160624
    108 H49        -0.9310   -0.2300   -3.7860 hc        1 MOL      0.160624
    109 H50        -1.7890    4.8330   -4.3320 hc        1 MOL      0.045029
    110 H51        -0.1610    4.1740   -4.3900 hc        1 MOL      0.045029
    111 H52        -1.4970    3.2980   -5.0890 hc        1 MOL      0.045029
    112 N10         1.7410   -0.5930   -2.8780 n         1 MOL     -0.461849
    113 C35         2.2970   -1.9000   -2.3500 c3        1 MOL      0.004349
    114 C36         3.7810   -2.2320   -2.6790 c         1 MOL      0.405944
    115 O17         4.1280   -3.3430   -2.3920 o         1 MOL     -0.529865
    116 C37         1.3460   -3.0710   -2.7290 c3        1 MOL      0.511813
    117 C38         1.2070   -3.3230   -4.2250 c3        1 MOL     -0.348616
    118 O18         0.0710   -2.8510   -2.3200 oh        1 MOL     -0.592937
    119 H53         1.7380   -0.4740   -3.8780 hn        1 MOL      0.251941
    120 H54         2.2010   -1.7610   -1.2690 h1        1 MOL      0.114600
    121 H55         1.7280   -3.9380   -2.1810 h1        1 MOL     -0.025056
    122 H56         0.0180   -2.9240   -1.3650 ho        1 MOL      0.326502
    123 H57         2.1910   -3.3350   -4.7120 hc        1 MOL      0.072122
    124 H58         0.8330   -4.3420   -4.2900 hc        1 MOL      0.072122
    125 H59         0.5260   -2.5990   -4.6550 hc        1 MOL      0.072122
    126 N11         4.6260   -1.3660   -3.2400 n         1 MOL     -0.263556
    127 C39         6.0630   -1.7010   -3.3080 c3        1 MOL      0.031649
    128 C40         6.6970   -1.7080   -1.8970 c         1 MOL      0.394237
    129 O19         7.2120   -0.6790   -1.4310 o         1 MOL     -0.455241
    130 C41         6.7290   -0.6840   -4.2200 c3        1 MOL      0.286967
    131 C42         6.5190   -0.9180   -5.6980 c3        1 MOL     -0.189721
    132 O20         6.2050    0.6230   -4.0830 oh        1 MOL     -0.596825
    133 H60         4.2810   -0.4530   -3.4980 hn        1 MOL      0.193901
    134 H61         6.2240   -2.6430   -3.8310 h1        1 MOL      0.073449
    135 H62         7.7970   -0.7250   -3.9800 h1        1 MOL      0.059041
    136 H63         5.4780    0.7520   -4.7060 ho        1 MOL      0.395270
    137 H64         5.4740   -0.8290   -5.9920 hc        1 MOL      0.036875
    138 H65         7.0850   -0.2390   -6.3290 hc        1 MOL      0.036875
    139 H66         6.7880   -1.9640   -5.8460 hc        1 MOL      0.036875
    140 N12         6.6200   -2.8100   -1.1500 n         1 MOL     -0.611098
    141 C43         6.4860   -2.8410    0.3230 c3        1 MOL      0.463583
    142 C44         5.3130   -2.0080    0.8980 c         1 MOL      0.476646
    143 O21         4.6600   -1.2180    0.1720 o         1 MOL     -0.468838
    144 C45         7.8900   -2.4210    0.9280 c3        1 MOL     -0.792140
    145 C46         9.2130   -2.8120    0.1780 c3        1 MOL      0.285867
    146 C47        10.5840   -2.6770    0.8250 c3        1 MOL     -0.156538
    147 C48        11.7130   -3.0720   -0.1330 c3        1 MOL      0.077839
    148 N13        13.1180   -2.8590    0.4070 n4        1 MOL     -0.199777
    149 H67         6.2240   -3.5980   -1.6350 hn        1 MOL      0.324887
    150 H68         6.2160   -3.8590    0.6070 h1        1 MOL     -0.001951
    151 H69         7.8900   -2.7950    1.9540 hc        1 MOL      0.210025
    152 H70         7.8330   -1.3310    0.8710 hc        1 MOL      0.210025
    153 H71         9.3810   -2.1710   -0.6860 hc        1 MOL      0.006801
    154 H72         9.1460   -3.7910   -0.2940 hc        1 MOL      0.006801
    155 H73        10.6340   -3.2860    1.7190 hc        1 MOL      0.062819
    156 H74        10.6800   -1.6320    1.1370 hc        1 MOL      0.062819
    157 H75        11.5320   -2.4660   -1.0150 hx        1 MOL      0.050615
    158 H76        11.5960   -4.0920   -0.5090 hx        1 MOL      0.050615
    159 H77        13.8830   -3.0170   -0.2320 hn        1 MOL      0.221620
    160 H78        13.1500   -1.9230    0.7690 hn        1 MOL      0.221620
    161 H79        13.1530   -3.4370    1.2400 hn        1 MOL      0.221620
    162 N14         4.9560   -2.3050    2.1510 n         1 MOL     -0.530732
    163 C49         3.9010   -1.5950    2.9280 c3        1 MOL      0.233077
    164 C50         2.4780   -1.5770    2.2330 c         1 MOL      0.269851
    165 O22         2.0110   -0.4900    1.9860 o         1 MOL     -0.506381
    166 C51         3.8720   -1.9650    4.3660 c3        1 MOL     -0.047326
    167 C52         5.1950   -1.8480    5.0640 c3        1 MOL     -0.271175
    168 C53         5.2230   -2.6140    6.4180 c         1 MOL      0.688010
    169 O23         5.3690   -1.8090    7.3830 o         1 MOL     -0.649245
    170 O24         4.9920   -3.7880    6.5570 o         1 MOL     -0.649245
    171 H80         5.5390   -2.9840    2.6180 hn        1 MOL      0.308446
    172 H81         4.1490   -0.5370    2.8630 h1        1 MOL      0.035229
    173 H82         3.4610   -2.9770    4.3950 hc        1 MOL      0.085238
    174 H83         3.2510   -1.2440    4.8850 hc        1 MOL      0.085238
    175 H84         5.4480   -0.8020    5.2350 hc        1 MOL      0.037952
    176 H85         5.9920   -2.2900    4.4750 hc        1 MOL      0.037952
    177 N15         1.7760   -2.6820    1.9100 n         1 MOL     -0.194753
    178 C54         2.2180   -4.0980    1.9960 c3        1 MOL     -0.104479
    179 H86         1.5040   -4.7330    1.4710 h1        1 MOL      0.053530
    180 H87         3.2010   -4.2010    1.5370 h1        1 MOL      0.053530
    181 H88         2.2710   -4.4000    3.0420 h1        1 MOL      0.053530
    182 H89         0.9170   -2.5020    1.4090 hn        1 MOL      0.227176
    183 Ca1         0.5950    1.6090    1.3970 Ca        1 MOL      1.686574
    184 O25        -1.6550    1.0250    3.2100 oh        1 MOL     -0.865996
    185 H90        -1.8520    1.9490    3.3760 ho        1 MOL      0.417019
    186 H91        -2.4510    0.6840    2.8020 ho        1 MOL      0.417019
    187 O26         3.2280    2.2890    1.5310 oh        1 MOL     -0.865996
    188 H92         3.7650    2.4790    2.3030 ho        1 MOL      0.417019
    189 H93         3.8590    2.2330    0.8040 ho        1 MOL      0.417019
    190 O27         1.0870    1.4420    4.0600 oh        1 MOL     -0.865996
    191 H94         0.9470    2.3840    4.1250 ho        1 MOL      0.417019
    192 H95         1.0500    1.1240    4.9600 ho        1 MOL      0.417019
@<TRIPOS>BOND
     1    1    2 1   
     2    1    4 1   
     3    1    5 1   
     4    1    6 1   
     5    2    3 2   
     6    2    7 1   
     7    7    8 1   
     8    7   15 1   
     9    8    9 1   
    10    8   11 1   
    11    8   16 1   
    12    9   10 2   
    13    9   19 1   
    14   11   12 1   
    15   11   17 1   
    16   11   18 1   
    17   12   13 1   
    18   12   14 1   
    19   19   20 1   
    20   19   28 1   
    21   20   21 1   
    22   20   23 1   
    23   20   29 1   
    24   21   22 2   
    25   21   41 1   
    26   23   24 1   
    27   23   30 1   
    28   23   31 1   
    29   24   25 1   
    30   24   32 1   
    31   24   33 1   
    32   25   26 1   
    33   25   34 1   
    34   25   35 1   
    35   26   27 1   
    36   26   36 1   
    37   26   37 1   
    38   27   38 1   
    39   27   39 1   
    40   27   40 1   
    41   41   42 1   
    42   41   49 1   
    43   42   43 1   
    44   42   45 1   
    45   42   50 1   
    46   43   44 2   
    47   43   53 1   
    48   45   46 1   
    49   45   51 1   
    50   45   52 1   
    51   46   47 1   
    52   46   48 1   
    53   53   54 1   
    54   53   57 1   
    55   54   55 1   
    56   54   58 1   
    57   54   59 1   
    58   55   56 2   
    59   55   60 1   
    60   60   61 1   
    61   60   68 1   
    62   61   62 1   
    63   61   64 1   
    64   61   69 1   
    65   62   63 2   
    66   62   72 1   
    67   64   65 1   
    68   64   70 1   
    69   64   71 1   
    70   65   66 1   
    71   65   67 1   
    72   72   73 1   
    73   72   76 1   
    74   73   74 1   
    75   73   77 1   
    76   73   78 1   
    77   74   75 2   
    78   74   79 1   
    79   79   80 1   
    80   79   86 1   
    81   80   81 1   
    82   80   83 1   
    83   80   87 1   
    84   81   82 2   
    85   81   93 1   
    86   83   84 1   
    87   83   85 1   
    88   83   88 1   
    89   84   90 1   
    90   84   91 1   
    91   84   92 1   
    92   85   89 1   
    93   93   94 1   
    94   93  101 1   
    95   94   95 1   
    96   94   97 1   
    97   94  102 1   
    98   95   96 2   
    99   95  112 1   
   100   97   98 1   
   101   97   99 1   
   102   97  103 1   
   103   98  100 1   
   104   98  104 1   
   105   98  105 1   
   106   99  106 1   
   107   99  107 1   
   108   99  108 1   
   109  100  109 1   
   110  100  110 1   
   111  100  111 1   
   112  112  113 1   
   113  112  119 1   
   114  113  114 1   
   115  113  116 1   
   116  113  120 1   
   117  114  115 2   
   118  114  126 1   
   119  116  117 1   
   120  116  118 1   
   121  116  121 1   
   122  117  123 1   
   123  117  124 1   
   124  117  125 1   
   125  118  122 1   
   126  126  127 1   
   127  126  133 1   
   128  127  128 1   
   129  127  130 1   
   130  127  134 1   
   131  128  129 2   
   132  128  140 1   
   133  130  131 1   
   134  130  132 1   
   135  130  135 1   
   136  131  137 1   
   137  131  138 1   
   138  131  139 1   
   139  132  136 1   
   140  140  141 1   
   141  140  149 1   
   142  141  142 1   
   143  141  144 1   
   144  141  150 1   
   145  142  143 2   
   146  142  162 1   
   147  144  145 1   
   148  144  151 1   
   149  144  152 1   
   150  145  146 1   
   151  145  153 1   
   152  145  154 1   
   153  146  147 1   
   154  146  155 1   
   155  146  156 1   
   156  147  148 1   
   157  147  157 1   
   158  147  158 1   
   159  148  159 1   
   160  148  160 1   
   161  148  161 1   
   162  162  163 1   
   163  162  171 1   
   164  163  164 1   
   165  163  166 1   
   166  163  172 1   
   167  164  165 2   
   168  164  177 1   
   169  166  167 1   
   170  166  173 1   
   171  166  174 1   
   172  167  168 1   
   173  167  175 1   
   174  167  176 1   
   175  168  169 1   
   176  168  170 1   
   177  177  178 1   
   178  177  182 1   
   179  178  179 1   
   180  178  180 1   
   181  178  181 1   
   182  184  185 1   
   183  184  186 1   
   184  187  188 1   
   185  187  189 1   
   186  190  191 1   
   187  190  192 1   
@<TRIPOS>SUBSTRUCTURE
     1 MOL         1 TEMP              0 ****  ****    0 ROOT
