@<TRIPOS>MOLECULE
MOL
  189   185     1     0     0
SMALL
resp


@<TRIPOS>ATOM
      1 C1          4.0650    3.7580   -3.7280 c3        1 MOL     -0.406152
      2 C2          4.8740    2.8680   -2.6330 c         1 MOL      0.568238
      3 O1          4.3210    2.5180   -1.6150 o         1 MOL     -0.531319
      4 H1          4.6370    3.8020   -4.6540 hc        1 MOL      0.105596
      5 H2          3.0940    3.3010   -3.9220 hc        1 MOL      0.105596
      6 H3          3.9220    4.7670   -3.3420 hc        1 MOL      0.105596
      7 N1          6.1480    2.5840   -2.9010 n         1 MOL     -0.538577
      8 C3          6.9410    1.4720   -2.3400 c3        1 MOL      0.246742
      9 C4          6.1720    0.2350   -1.7350 c         1 MOL      0.335036
     10 O2          5.9200    0.1640   -0.4540 o         1 MOL     -0.544346
     11 C5          8.0710    2.0760   -1.3970 c3        1 MOL     -0.142718
     12 C6          7.6230    3.1240   -0.3380 c         1 MOL      0.699654
     13 O3          6.4440    3.2990   -0.0670 o         1 MOL     -0.711960
     14 O4          8.4970    3.8820    0.1520 o         1 MOL     -0.711960
     15 H4          6.4370    2.9680   -3.7850 hn        1 MOL      0.300930
     16 H5          7.4880    1.1110   -3.2100 h1        1 MOL      0.002598
     17 H6          8.9020    2.4270   -2.0210 hc        1 MOL      0.024083
     18 H7          8.4460    1.1900   -0.8870 hc        1 MOL      0.024083
     19 N2          5.5070   -0.4360   -2.6440 n         1 MOL     -0.459672
     20 C7          4.8210   -1.7180   -2.5530 c3        1 MOL      0.430916
     21 C8          5.3850   -2.8120   -1.5810 c         1 MOL      0.185231
     22 O5          5.7400   -3.9760   -2.0410 o         1 MOL     -0.561199
     23 C9          3.3230   -1.4800   -2.3740 c3        1 MOL      0.079226
     24 C10         2.5620   -2.7920   -2.4020 c3        1 MOL     -0.090456
     25 C11         2.7050   -0.4220   -3.3960 c3        1 MOL     -0.315082
     26 C12         2.6030   -3.4540   -3.7900 c3        1 MOL     -0.065472
     27 H8          5.4920   -0.0210   -3.5690 hn        1 MOL      0.249214
     28 H9          5.0000   -2.2610   -3.4760 h1        1 MOL     -0.036059
     29 H10         3.1590   -1.0300   -1.3860 hc        1 MOL     -0.015295
     30 H11         1.5170   -2.5090   -2.2270 hc        1 MOL      0.085383
     31 H12         2.8950   -3.4850   -1.6370 hc        1 MOL      0.085383
     32 H13         1.6110   -0.3830   -3.3730 hc        1 MOL      0.080667
     33 H14         2.9630    0.6330   -3.2270 hc        1 MOL      0.080667
     34 H15         3.0190   -0.5640   -4.4340 hc        1 MOL      0.080667
     35 H16         3.5380   -3.9950   -3.9150 hc        1 MOL     -0.003073
     36 H17         1.8410   -4.2280   -3.9020 hc        1 MOL     -0.003073
     37 H18         2.5430   -2.6860   -4.5660 hc        1 MOL     -0.003073
     38 N3          5.8030   -2.5070   -0.3970 n         1 MOL      0.002899
     39 C13         6.6980   -3.3870    0.4650 c3        1 MOL      0.028740
     40 C14         6.0660   -4.5930    1.2860 c         1 MOL      0.521826
     41 O6          6.7200   -5.6590    1.3960 o         1 MOL     -0.578566
     42 C15         7.5290   -2.5820    1.3870 c3        1 MOL     -0.211802
     43 C16         8.3820   -1.4160    0.8540 c         1 MOL      0.745156
     44 O7          8.7610   -0.5110    1.6040 o         1 MOL     -0.705135
     45 O8          8.8130   -1.5220   -0.3080 o         1 MOL     -0.705135
     46 H19         5.6700   -1.5490   -0.1240 hn        1 MOL      0.252405
     47 H20         7.4460   -3.8960   -0.1560 h1        1 MOL      0.070692
     48 H21         8.2340   -3.2360    1.8990 hc        1 MOL      0.050053
     49 H22         6.9480   -2.2150    2.2300 hc        1 MOL      0.050053
     50 N4          4.8650   -4.5730    1.8710 n         1 MOL     -0.493632
     51 C17         3.8770   -3.5610    2.0500 c3        1 MOL      0.037363
     52 C18         4.1920   -2.5710    3.1800 c         1 MOL      0.542774
     53 O9          5.1740   -2.6850    3.8900 o         1 MOL     -0.539002
     54 H23         4.6110   -5.4390    2.3260 hn        1 MOL      0.296452
     55 H24         2.8910   -3.9860    2.2410 h1        1 MOL      0.047472
     56 H25         3.8380   -2.9630    1.1390 h1        1 MOL      0.047472
     57 N5          3.4240   -1.5180    3.4550 n         1 MOL     -0.510284
     58 C19         2.2020   -1.1750    2.8610 c3        1 MOL      0.264020
     59 C20         2.2770   -0.8270    1.3610 c         1 MOL      0.116930
     60 O10         3.3220   -0.4580    0.8930 o         1 MOL     -0.549391
     61 C21         1.6320    0.0720    3.5760 c3        1 MOL     -0.338795
     62 C22         2.6490    1.1450    3.8240 c         1 MOL      0.754835
     63 O11         2.8970    1.9510    2.9050 o         1 MOL     -0.683415
     64 O12         3.3020    1.0830    4.8910 o         1 MOL     -0.683415
     65 H26         3.8240   -0.9300    4.1680 hn        1 MOL      0.315507
     66 H27         1.4620   -1.9520    3.0540 h1        1 MOL     -0.004670
     67 H28         1.3000   -0.2360    4.5770 hc        1 MOL      0.072375
     68 H29         0.7490    0.4620    3.0780 hc        1 MOL      0.072375
     69 N6          1.1360   -0.7560    0.6220 n         1 MOL     -0.112196
     70 C23        -0.2000   -1.2900    0.8660 c3        1 MOL      0.080312
     71 C24        -0.4670   -2.7840    0.5310 c         1 MOL      0.568952
     72 O13         0.2940   -3.4230   -0.1780 o         1 MOL     -0.555713
     73 H30         1.2890   -0.3520   -0.2910 hn        1 MOL      0.183815
     74 H31        -0.9800   -0.6670    0.4260 h1        1 MOL      0.025248
     75 H32        -0.4190   -1.2540    1.9360 h1        1 MOL      0.025248
     76 N7         -1.5950   -3.2250    1.1170 n         1 MOL     -0.414622
     77 C25        -2.0890   -4.5230    0.7930 c3        1 MOL     -0.089297
     78 C26        -2.7510   -4.6700   -0.6040 c         1 MOL      0.383774
     79 O14        -2.8170   -5.7590   -1.1870 o         1 MOL     -0.529787
     80 C27        -2.8660   -5.2580    1.9440 c3        1 MOL     -0.009914
     81 C28        -3.9190   -4.4080    2.6040 c3        1 MOL     -0.251651
     82 C29        -4.9840   -4.0280    1.5980 c         1 MOL      0.407426
     83 N8         -5.8970   -4.9830    1.2840 n         1 MOL     -0.644651
     84 O15        -4.9130   -2.9420    1.0000 o         1 MOL     -0.495830
     85 H33        -2.0940   -2.5100    1.6180 hn        1 MOL      0.258377
     86 H34        -1.1870   -5.1370    0.8120 h1        1 MOL      0.152007
     87 H35        -2.1320   -5.5140    2.7110 hc        1 MOL      0.046208
     88 H36        -3.2040   -6.2230    1.5880 hc        1 MOL      0.046208
     89 H37        -3.4470   -3.5160    2.9930 hc        1 MOL      0.118496
     90 H38        -4.3860   -4.9900    3.4020 hc        1 MOL      0.118496
     91 H39        -5.9180   -5.8590    1.7960 hn        1 MOL      0.344423
     92 H40        -6.6230   -4.7830    0.6150 hn        1 MOL      0.344423
     93 N9         -3.0680   -3.5310   -1.2320 n         1 MOL      0.020824
     94 C30        -3.4790   -3.4520   -2.6570 c3        1 MOL     -0.281820
     95 C31        -4.8470   -2.7720   -2.9160 c         1 MOL      0.500185
     96 O16        -5.3770   -2.7630   -4.0080 o         1 MOL     -0.537436
     97 C32        -2.4910   -2.6700   -3.5840 c3        1 MOL      0.197577
     98 C33        -1.1390   -3.3920   -3.7830 c3        1 MOL     -0.169587
     99 C34        -1.9630   -1.2790   -3.0430 c3        1 MOL     -0.169587
    100 H41        -2.9230   -2.7330   -0.6290 hn        1 MOL      0.153743
    101 H42        -3.5970   -4.4110   -3.1700 h1        1 MOL      0.161111
    102 H43        -2.8980   -2.5180   -4.5750 hc        1 MOL      0.005077
    103 H44        -0.5800   -3.3640   -2.8460 hc        1 MOL      0.033383
    104 H45        -1.4000   -4.4030   -4.1040 hc        1 MOL      0.033383
    105 H46        -0.4740   -2.9940   -4.5490 hc        1 MOL      0.033383
    106 H47        -1.5540   -1.4780   -2.0550 hc        1 MOL      0.033383
    107 H48        -1.1560   -0.8100   -3.6040 hc        1 MOL      0.033383
    108 H49        -2.7930   -0.5850   -2.9240 hc        1 MOL      0.033383
    109 N10        -5.5410   -2.2560   -1.8800 n         1 MOL     -0.322655
    110 C35        -6.9560   -1.7810   -1.9980 c3        1 MOL     -0.090017
    111 C36        -7.1410   -0.3160   -1.5320 c         1 MOL      0.585691
    112 O17        -8.1980    0.3110   -1.6710 o         1 MOL     -0.559340
    113 C37        -7.7640   -2.6910   -1.1270 c3        1 MOL     -0.087309
    114 C38        -7.9610   -4.1100   -1.5730 c         1 MOL      0.619591
    115 N11        -7.8720   -4.4460   -2.8080 n         1 MOL     -0.701050
    116 O18        -8.1780   -4.9420   -0.7320 o         1 MOL     -0.594233
    117 H50        -5.2000   -2.0520   -0.9520 hn        1 MOL      0.278581
    118 H51        -7.4050   -1.8310   -2.9960 h1        1 MOL      0.098382
    119 H52        -8.7780   -2.3020   -1.0490 hc        1 MOL      0.043407
    120 H53        -7.4450   -2.7780   -0.0870 hc        1 MOL      0.043407
    121 H54        -7.6790   -3.8580   -3.5970 hn        1 MOL      0.346731
    122 H55        -8.1430   -5.4040   -2.9980 hn        1 MOL      0.346731
    123 N12        -6.2070    0.3260   -0.8290 n         1 MOL     -0.471712
    124 C39        -6.3740    1.6370   -0.1310 c3        1 MOL      0.144295
    125 C40        -5.0920    2.4960   -0.0160 c         1 MOL      0.311391
    126 O19        -4.0630    2.0170    0.4600 o         1 MOL     -0.382000
    127 C41        -7.0360    1.4280    1.2450 c3        1 MOL     -0.349973
    128 C42        -6.3070    0.7610    2.3890 ca        1 MOL      0.123492
    129 C43        -5.4430    1.4120    3.3590 ca        1 MOL     -0.180119
    130 C44        -6.6430   -0.5900    2.5720 ca        1 MOL     -0.180119
    131 C45        -4.9090    0.6560    4.4020 ca        1 MOL     -0.274407
    132 C46        -6.1230   -1.3640    3.6750 ca        1 MOL     -0.274407
    133 C47        -5.2010   -0.7370    4.5290 ca        1 MOL      0.374332
    134 O20        -4.8540   -1.3920    5.6460 oh        1 MOL     -0.598974
    135 H56        -5.4240   -0.1950   -0.4760 hn        1 MOL      0.227432
    136 H57        -7.0660    2.1430   -0.8080 h1        1 MOL      0.076329
    137 H58        -8.0000    0.9630    1.0620 hc        1 MOL      0.127039
    138 H59        -7.1910    2.4090    1.6870 hc        1 MOL      0.127039
    139 H60        -5.2040    2.4570    3.2160 ha        1 MOL      0.177939
    140 H61        -7.2020   -1.0580    1.7800 ha        1 MOL      0.177939
    141 H62        -4.2530    1.0850    5.1410 ha        1 MOL      0.151395
    142 H63        -6.4260   -2.3940    3.8200 ha        1 MOL      0.151395
    143 H64        -4.6220   -0.7430    6.3140 ho        1 MOL      0.426658
    144 N13        -5.2480    3.7980   -0.3200 n         1 MOL     -0.349325
    145 C48        -4.3260    4.9930   -0.1060 c3        1 MOL      0.086352
    146 C49        -2.9090    4.9430   -0.7450 c         1 MOL      0.437905
    147 O21        -2.2470    5.9300   -0.8300 o         1 MOL     -0.518789
    148 C50        -4.3330    5.3550    1.3920 c3        1 MOL     -0.250042
    149 C51        -5.6810    6.0510    1.8200 c3        1 MOL     -0.070633
    150 C52        -5.6280    6.5390    3.2600 c         1 MOL      0.676136
    151 O22        -5.6620    7.7260    3.5980 o         1 MOL     -0.720209
    152 O23        -5.6620    5.6340    4.1450 o         1 MOL     -0.720209
    153 H65        -6.0790    4.0270   -0.8430 hn        1 MOL      0.255949
    154 H66        -4.8810    5.8100   -0.5560 h1        1 MOL      0.057453
    155 H67        -3.6530    6.1870    1.5250 hc        1 MOL      0.125510
    156 H68        -4.1080    4.4240    1.9010 hc        1 MOL      0.125510
    157 H69        -6.5690    5.4710    1.5630 hc        1 MOL     -0.016399
    158 H70        -5.8580    6.9300    1.1980 hc        1 MOL     -0.016399
    159 N14        -2.4200    3.8370   -1.2040 n         1 MOL     -0.271362
    160 C53        -1.2890    3.8380   -2.1710 c3        1 MOL     -0.072005
    161 C54        -1.7640    4.4410   -3.5390 c         1 MOL      0.444773
    162 O24        -0.9680    4.7280   -4.4390 o         1 MOL     -0.529565
    163 C55        -0.6440    2.4490   -2.3090 c3        1 MOL     -0.198933
    164 C56        -0.1250    1.7710   -1.0440 c3        1 MOL      0.503233
    165 C57         1.0060    2.5700   -0.3100 c         1 MOL      0.456097
    166 O25         2.1070    2.0170   -0.2950 o         1 MOL     -0.590327
    167 O26         0.9060    3.7540    0.0970 o         1 MOL     -0.590327
    168 H71        -3.0590    3.0580   -1.2450 hn        1 MOL      0.207985
    169 H72        -0.5060    4.4470   -1.7040 h1        1 MOL      0.169491
    170 H73         0.2100    2.3880   -2.9900 hc        1 MOL      0.041378
    171 H74        -1.4670    1.8530   -2.7100 hc        1 MOL      0.041378
    172 H75         0.2470    0.7780   -1.2710 hc        1 MOL     -0.186257
    173 H76        -0.9240    1.6250   -0.3130 hc        1 MOL     -0.186257
    174 N15        -3.0570    4.7280   -3.7530 n         1 MOL     -0.189602
    175 C58        -3.6440    5.4160   -4.8660 c3        1 MOL     -0.129953
    176 H77        -2.9380    5.4300   -5.6960 h1        1 MOL      0.069032
    177 H78        -4.5550    4.9020   -5.1730 h1        1 MOL      0.069032
    178 H79        -3.8830    6.4390   -4.5750 h1        1 MOL      0.069032
    179 H80        -3.7310    4.5490   -3.0200 hn        1 MOL      0.134848
    180 Ca1         4.3740    2.0090    0.8880 Ca        1 MOL      1.745508
    181 O27         3.6050    4.5520    0.4130 oh        1 MOL     -0.811323
    182 H81         4.1990    4.8910   -0.2590 ho        1 MOL      0.388127
    183 H82         2.8390    4.2590   -0.0760 ho        1 MOL      0.388127
    184 O28         6.5340    1.1030    2.4610 oh        1 MOL     -0.811323
    185 H83         7.2720    0.6810    2.0330 ho        1 MOL      0.388127
    186 H84         6.6140    0.8700    3.3800 ho        1 MOL      0.388127
    187 O29         5.3260    3.8770    2.7120 oh        1 MOL     -0.811323
    188 H85         5.7660    3.8320    3.5560 ho        1 MOL      0.388127
    189 H86         5.8220    4.5320    2.2180 ho        1 MOL      0.388127
@<TRIPOS>BOND
     1    1    2 1   
     2    1    4 1   
     3    1    5 1   
     4    1    6 1   
     5    2    3 2   
     6    2    7 1   
     7    7    8 1   
     8    7   15 1   
     9    8    9 1   
    10    8   11 1   
    11    8   16 1   
    12    9   10 2   
    13    9   19 1   
    14   11   12 1   
    15   11   17 1   
    16   11   18 1   
    17   12   13 1   
    18   12   14 1   
    19   19   20 1   
    20   19   27 1   
    21   20   21 1   
    22   20   23 1   
    23   20   28 1   
    24   21   22 2   
    25   21   38 1   
    26   23   24 1   
    27   23   25 1   
    28   23   29 1   
    29   24   26 1   
    30   24   30 1   
    31   24   31 1   
    32   25   32 1   
    33   25   33 1   
    34   25   34 1   
    35   26   35 1   
    36   26   36 1   
    37   26   37 1   
    38   38   39 1   
    39   38   46 1   
    40   39   40 1   
    41   39   42 1   
    42   39   47 1   
    43   40   41 2   
    44   40   50 1   
    45   42   43 1   
    46   42   48 1   
    47   42   49 1   
    48   43   44 1   
    49   43   45 1   
    50   50   51 1   
    51   50   54 1   
    52   51   52 1   
    53   51   55 1   
    54   51   56 1   
    55   52   53 2   
    56   52   57 1   
    57   57   58 1   
    58   57   65 1   
    59   58   59 1   
    60   58   61 1   
    61   58   66 1   
    62   59   60 2   
    63   59   69 1   
    64   61   62 1   
    65   61   67 1   
    66   61   68 1   
    67   62   63 1   
    68   62   64 1   
    69   69   70 1   
    70   69   73 1   
    71   70   71 1   
    72   70   74 1   
    73   70   75 1   
    74   71   72 2   
    75   71   76 1   
    76   76   77 1   
    77   76   85 1   
    78   77   78 1   
    79   77   80 1   
    80   77   86 1   
    81   78   79 2   
    82   78   93 1   
    83   80   81 1   
    84   80   87 1   
    85   80   88 1   
    86   81   82 1   
    87   81   89 1   
    88   81   90 1   
    89   82   83 1   
    90   82   84 2   
    91   83   91 1   
    92   83   92 1   
    93   93   94 1   
    94   93  100 1   
    95   94   95 1   
    96   94   97 1   
    97   94  101 1   
    98   95   96 2   
    99   95  109 1   
   100   97   98 1   
   101   97   99 1   
   102   97  102 1   
   103   98  103 1   
   104   98  104 1   
   105   98  105 1   
   106   99  106 1   
   107   99  107 1   
   108   99  108 1   
   109  109  110 1   
   110  109  117 1   
   111  110  111 1   
   112  110  113 1   
   113  110  118 1   
   114  111  112 2   
   115  111  123 1   
   116  113  114 1   
   117  113  119 1   
   118  113  120 1   
   119  114  115 1   
   120  114  116 2   
   121  115  121 1   
   122  115  122 1   
   123  123  124 1   
   124  123  135 1   
   125  124  125 1   
   126  124  127 1   
   127  124  136 1   
   128  125  126 2   
   129  125  144 1   
   130  127  128 1   
   131  127  137 1   
   132  127  138 1   
   133  128  129 ar  
   134  128  130 ar  
   135  129  131 ar  
   136  129  139 1   
   137  130  132 ar  
   138  130  140 1   
   139  131  133 ar  
   140  131  141 1   
   141  132  133 ar  
   142  132  142 1   
   143  133  134 1   
   144  134  143 1   
   145  144  145 1   
   146  144  153 1   
   147  145  146 1   
   148  145  148 1   
   149  145  154 1   
   150  146  147 2   
   151  146  159 1   
   152  148  149 1   
   153  148  155 1   
   154  148  156 1   
   155  149  150 1   
   156  149  157 1   
   157  149  158 1   
   158  150  151 1   
   159  150  152 1   
   160  159  160 1   
   161  159  168 1   
   162  160  161 1   
   163  160  163 1   
   164  160  169 1   
   165  161  162 2   
   166  161  174 1   
   167  163  164 1   
   168  163  170 1   
   169  163  171 1   
   170  164  165 1   
   171  164  172 1   
   172  164  173 1   
   173  165  166 1   
   174  165  167 1   
   175  174  175 1   
   176  174  179 1   
   177  175  176 1   
   178  175  177 1   
   179  175  178 1   
   180  181  182 1   
   181  181  183 1   
   182  184  185 1   
   183  184  186 1   
   184  187  188 1   
   185  187  189 1   
@<TRIPOS>SUBSTRUCTURE
     1 MOL         1 TEMP              0 ****  ****    0 ROOT
