@<TRIPOS>MOLECULE
MOL
  185   180     1     0     0
SMALL
resp


@<TRIPOS>ATOM
      1 C1          6.0950    2.2510    2.9630 c3        1 MOL     -0.471879
      2 C2          6.1220    2.0700    1.4200 c         1 MOL      0.756542
      3 O1          5.1770    1.4220    0.9410 o         1 MOL     -0.556150
      4 H1          5.1770    1.8210    3.3630 hc        1 MOL      0.117936
      5 H2          6.9550    1.7470    3.4030 hc        1 MOL      0.117936
      6 H3          6.1330    3.3140    3.2040 hc        1 MOL      0.117936
      7 N1          7.1190    2.5850    0.7180 n         1 MOL     -0.536046
      8 C3          7.4410    2.2110   -0.6850 c3        1 MOL     -0.023020
      9 C4          7.4580    0.6540   -0.8970 c         1 MOL      0.517961
     10 O2          7.2530    0.1190   -2.0260 o         1 MOL     -0.503999
     11 C5          6.6960    3.0360   -1.7850 c3        1 MOL     -0.181250
     12 C6          6.8890    4.5570   -1.7090 c         1 MOL      0.745454
     13 O3          7.4970    5.0780   -0.7560 o         1 MOL     -0.676073
     14 O4          6.4430    5.2350   -2.6320 o         1 MOL     -0.676073
     15 H4          7.6130    3.3610    1.1190 hn        1 MOL      0.295408
     16 H5          8.4850    2.4480   -0.8720 h1        1 MOL      0.085918
     17 H6          5.6170    2.8850   -1.7620 hc        1 MOL      0.064681
     18 H7          7.0760    2.7860   -2.7800 hc        1 MOL      0.064681
     19 N2          7.7940   -0.0860    0.2010 n         1 MOL     -0.445885
     20 C7          7.9340   -1.5520    0.1810 c3        1 MOL      0.002087
     21 C8          6.6060   -2.3590    0.3620 c         1 MOL      0.462393
     22 O5          6.6640   -3.5780    0.3050 o         1 MOL     -0.514036
     23 C9          8.9220   -2.0490    1.2650 c3        1 MOL     -0.024375
     24 C10        10.3800   -1.5210    1.1640 c3        1 MOL     -0.050501
     25 C11        11.0230   -1.8380   -0.1670 c3        1 MOL      0.059835
     26 C12        12.3840   -1.2540   -0.4670 c3        1 MOL     -0.043279
     27 N3         13.3950   -1.8810    0.4930 n4        1 MOL     -0.372668
     28 H8          8.0270    0.4110    1.0480 hn        1 MOL      0.265866
     29 H9          8.2040   -1.8920   -0.8170 h1        1 MOL      0.112349
     30 H10         8.8640   -3.1350    1.3340 hc        1 MOL      0.037413
     31 H11         8.5630   -1.6400    2.2120 hc        1 MOL      0.037413
     32 H12        10.9800   -1.8970    1.9890 hc        1 MOL      0.003511
     33 H13        10.3430   -0.4300    1.2250 hc        1 MOL      0.003511
     34 H14        10.3450   -1.4920   -0.9490 hc        1 MOL      0.026829
     35 H15        10.9630   -2.9160   -0.3450 hc        1 MOL      0.026829
     36 H16        12.3000   -0.1820   -0.3010 hx        1 MOL      0.109754
     37 H17        12.6620   -1.5040   -1.4930 hx        1 MOL      0.109754
     38 H18        14.3170   -1.8530    0.0730 hn        1 MOL      0.301173
     39 H19        13.3570   -1.3370    1.3370 hn        1 MOL      0.301173
     40 H20        13.0590   -2.8250    0.5960 hn        1 MOL      0.301173
     41 N4          5.5070   -1.5890    0.6160 n         1 MOL     -0.270649
     42 C13         4.1370   -2.1060    0.8770 c3        1 MOL     -0.045447
     43 C14         3.5830   -2.8630   -0.3570 c         1 MOL      0.554004
     44 O6          3.8860   -2.5330   -1.4830 o         1 MOL     -0.430734
     45 C15         3.1270   -0.9500    1.1790 c3        1 MOL     -0.161129
     46 C16         1.6270   -1.3540    1.3120 c         1 MOL      0.492012
     47 O7          1.0070   -1.4150    0.2550 o         1 MOL     -0.605966
     48 O8          1.1450   -1.6230    2.4540 o         1 MOL     -0.605966
     49 H21         5.6390   -0.5950    0.7430 hn        1 MOL      0.201934
     50 H22         4.1020   -2.7960    1.7230 h1        1 MOL      0.050016
     51 H23         3.2030   -0.2670    0.3390 hc        1 MOL      0.063137
     52 H24         3.4450   -0.4020    2.0630 hc        1 MOL      0.063137
     53 N5          2.7090   -3.8760   -0.1660 n         1 MOL     -0.445639
     54 C17         2.2610   -4.7950   -1.2740 c3        1 MOL     -0.184695
     55 C18         1.2520   -4.1970   -2.2570 c         1 MOL      0.633499
     56 O9          0.8220   -4.9150   -3.1510 o         1 MOL     -0.576846
     57 H25         2.3840   -4.0780    0.7750 hn        1 MOL      0.300416
     58 H26         1.8160   -5.7210   -0.8880 h1        1 MOL      0.121349
     59 H27         3.1230   -5.0090   -1.9000 h1        1 MOL      0.121349
     60 N6          0.9700   -2.8970   -2.0270 n         1 MOL     -0.281987
     61 C19         0.4060   -2.1420   -3.0780 c3        1 MOL     -0.024893
     62 C20         1.1040   -0.6990   -3.3350 c         1 MOL      0.330060
     63 O10         0.5430    0.1690   -4.0340 o         1 MOL     -0.470946
     64 C21        -1.1170   -1.8680   -2.8990 c3        1 MOL     -0.432300
     65 C22        -1.8070   -2.9350   -2.1170 c         1 MOL      0.788105
     66 N7         -2.4890   -3.9160   -2.7130 n         1 MOL     -0.770318
     67 O11        -1.7190   -2.9650   -0.8870 o         1 MOL     -0.639203
     68 H28         1.2840   -2.4300   -1.1890 hn        1 MOL      0.170693
     69 H29         0.4550   -2.7010   -4.0140 h1        1 MOL      0.121028
     70 H30        -1.6670   -1.8360   -3.8440 hc        1 MOL      0.125995
     71 H31        -1.2550   -0.9470   -2.3380 hc        1 MOL      0.125995
     72 H32        -2.5160   -3.9540   -3.7210 hn        1 MOL      0.370541
     73 H33        -2.7300   -4.7020   -2.1380 hn        1 MOL      0.370541
     74 N8          2.2510   -0.4720   -2.7450 n         1 MOL     -0.030068
     75 C23         2.9300    0.8320   -2.7090 c3        1 MOL     -0.122780
     76 C24         2.2400    1.8970   -1.7940 c         1 MOL      0.414670
     77 O12         2.2300    3.1170   -2.1490 o         1 MOL     -0.461747
     78 H34         2.7110   -1.2370   -2.2770 hn        1 MOL      0.062207
     79 H35         2.9780    1.2540   -3.7130 h1        1 MOL      0.102276
     80 H36         3.9540    0.7020   -2.3500 h1        1 MOL      0.102276
     81 N9          1.5050    1.3990   -0.7300 n         1 MOL     -0.353446
     82 C25         0.7700    2.2110    0.2110 c3        1 MOL      0.040755
     83 C26        -0.6430    1.6780    0.5160 c         1 MOL      0.139294
     84 O13        -0.9620    0.4890    0.4880 o         1 MOL     -0.385324
     85 C27         1.5990    2.3620    1.4660 c3        1 MOL     -0.312461
     86 C28         0.8750    2.8170    2.7320 ca        1 MOL      0.059176
     87 C29         0.9280    4.1730    3.0960 ca        1 MOL     -0.212776
     88 C30         0.1840    1.9170    3.5610 ca        1 MOL     -0.212776
     89 C31         0.2840    4.6260    4.2730 ca        1 MOL     -0.170978
     90 C32        -0.4850    2.3310    4.7720 ca        1 MOL     -0.170978
     91 C33        -0.3660    3.6960    5.0980 ca        1 MOL      0.256343
     92 O14        -0.9290    4.1560    6.2750 oh        1 MOL     -0.490639
     93 H37         1.4530    0.3850   -0.6500 hn        1 MOL      0.363803
     94 H38         0.7560    3.2050   -0.2280 h1        1 MOL      0.056669
     95 H39         2.4010    3.0780    1.2700 hc        1 MOL      0.182274
     96 H40         2.0230    1.3750    1.6290 hc        1 MOL      0.182274
     97 H41         1.4810    4.8890    2.5080 ha        1 MOL      0.151206
     98 H42         0.1360    0.8810    3.2860 ha        1 MOL      0.151206
     99 H43         0.3540    5.6630    4.5650 ha        1 MOL      0.141953
    100 H44        -0.8370    1.6000    5.4840 ha        1 MOL      0.141953
    101 H45        -1.4350    3.4370    6.6690 ho        1 MOL      0.358634
    102 N10        -1.4960    2.6720    0.8690 n         1 MOL      0.048701
    103 C34        -2.9650    2.4580    0.7260 c3        1 MOL     -0.113232
    104 C35        -3.3420    1.9860   -0.7140 c         1 MOL      0.060162
    105 O15        -4.2500    1.1360   -0.8870 o         1 MOL     -0.201794
    106 C36        -3.7150    3.7670    1.0550 c3        1 MOL      0.007802
    107 C37        -3.3920    4.3490    2.4420 c3        1 MOL     -0.196305
    108 C38        -5.2640    3.5960    0.8950 c3        1 MOL     -0.096785
    109 C39        -3.8510    3.3950    3.6290 c3        1 MOL     -0.473660
    110 H46        -1.2300    3.6400    0.8750 hn        1 MOL      0.191419
    111 H47        -3.2750    1.7670    1.5070 h1        1 MOL      0.084643
    112 H48        -3.4230    4.4800    0.2830 hc        1 MOL     -0.006689
    113 H49        -3.9540    5.2540    2.6380 hc        1 MOL      0.118246
    114 H50        -2.3200    4.5230    2.5400 hc        1 MOL      0.118246
    115 H51        -5.7960    4.4860    1.2590 hc        1 MOL      0.050735
    116 H52        -5.4650    3.3520   -0.1430 hc        1 MOL      0.050735
    117 H53        -5.6160    2.6830    1.3800 hc        1 MOL      0.050735
    118 H54        -4.8890    3.0840    3.5070 hc        1 MOL      0.129370
    119 H55        -3.0910    2.6100    3.7220 hc        1 MOL      0.129370
    120 H56        -3.8430    4.0400    4.5000 hc        1 MOL      0.129370
    121 N11        -2.6450    2.4680   -1.7180 n         1 MOL      0.038693
    122 C40        -2.9870    2.1180   -3.1290 c3        1 MOL     -0.219315
    123 C41        -4.3930    2.2830   -3.6690 c         1 MOL      0.396842
    124 O16        -4.7000    1.5540   -4.5920 o         1 MOL     -0.464943
    125 C42        -2.1190    2.9530   -4.0410 c3        1 MOL      0.184645
    126 O17        -0.7410    2.5770   -3.8390 oh        1 MOL     -0.572567
    127 H57        -1.9950    3.1910   -1.4190 hn        1 MOL      0.198439
    128 H58        -2.7670    1.0490   -3.0580 h1        1 MOL      0.170383
    129 H59        -2.3730    4.0090   -3.9330 h1        1 MOL      0.062094
    130 H60        -2.2980    2.6600   -5.0700 h1        1 MOL      0.062094
    131 H61        -0.6310    1.7010   -4.2080 ho        1 MOL      0.375928
    132 N12        -5.2490    3.0160   -2.9460 n         1 MOL     -0.424309
    133 C43        -6.7320    2.9070   -2.9300 c3        1 MOL      0.360156
    134 C44        -7.3810    1.5090   -2.8050 c         1 MOL      0.425267
    135 O18        -8.4680    1.2930   -3.2450 o         1 MOL     -0.520831
    136 C45        -7.2860    3.8140   -4.0260 c3        1 MOL     -0.313854
    137 H62        -4.8620    3.6190   -2.2420 hn        1 MOL      0.251984
    138 H63        -6.9600    3.2890   -1.9410 h1        1 MOL     -0.019937
    139 H64        -7.3520    4.8500   -3.6880 hc        1 MOL      0.080717
    140 H65        -6.6200    3.8900   -4.8870 hc        1 MOL      0.080717
    141 H66        -8.2680    3.4240   -4.3150 hc        1 MOL      0.080717
    142 N13        -6.6660    0.6120   -2.1730 n         1 MOL     -0.191644
    143 C46        -6.9640   -0.7750   -1.8310 c3        1 MOL      0.294216
    144 C47        -7.0270   -1.1450   -0.2780 c         1 MOL      0.372973
    145 O19        -6.6530   -0.3350    0.6010 o         1 MOL     -0.424121
    146 C48        -6.0010   -1.6210   -2.6240 c3        1 MOL     -0.178437
    147 H67        -5.8100    0.9100   -1.7320 hn        1 MOL     -0.113230
    148 H68        -8.0260   -0.8620   -2.0830 h1        1 MOL     -0.016740
    149 H69        -5.1020   -1.1600   -3.0520 hc        1 MOL      0.043878
    150 H70        -5.6640   -2.4960   -2.0520 hc        1 MOL      0.043878
    151 H71        -6.5910   -1.9560   -3.4640 hc        1 MOL      0.043878
    152 N14        -7.6150   -2.3230   -0.0600 n         1 MOL     -0.501018
    153 C49        -7.5700   -2.8810    1.3010 c3        1 MOL      0.001018
    154 C50        -8.1180   -2.0020    2.4120 c         1 MOL      0.389872
    155 O20        -7.6720   -2.0950    3.5490 o         1 MOL     -0.500548
    156 C51        -6.1280   -3.3080    1.7660 c3        1 MOL      0.385128
    157 C52        -5.3130   -3.9920    0.6720 c3        1 MOL     -0.073243
    158 C53        -3.9790   -4.4530    1.3870 c         1 MOL      0.600616
    159 O21        -3.6380   -5.6550    1.2470 o         1 MOL     -0.670910
    160 O22        -3.2410   -3.6810    2.0610 o         1 MOL     -0.670910
    161 H72        -7.6920   -2.9660   -0.8330 hn        1 MOL      0.320567
    162 H73        -8.1540   -3.8010    1.3050 h1        1 MOL      0.071530
    163 H74        -6.2080   -4.0590    2.5570 hc        1 MOL     -0.115027
    164 H75        -5.5600   -2.4810    2.1950 hc        1 MOL     -0.115027
    165 H76        -5.1890   -3.1010    0.0440 hc        1 MOL     -0.030941
    166 H77        -5.8510   -4.8140    0.2150 hc        1 MOL     -0.030941
    167 N15        -9.0620   -1.1280    2.1370 n         1 MOL     -0.266992
    168 C54        -9.5080    0.0240    3.0460 c3        1 MOL     -0.261258
    169 H78        -9.6960   -0.3580    4.0500 h1        1 MOL      0.124340
    170 H79        -8.7230    0.7800    3.0870 h1        1 MOL      0.124340
    171 H80       -10.4210    0.4680    2.6500 h1        1 MOL      0.124340
    172 H81        -9.5250   -1.2350    1.2480 hn        1 MOL      0.238744
    173 Ca1        -1.3900   -1.9720    1.6360 Ca        1 MOL      1.753336
    174 O23        -3.6590   -0.8360    0.8270 oh        1 MOL     -0.867939
    175 H82        -4.1900   -0.5060    1.5520 ho        1 MOL      0.421966
    176 H83        -3.9020   -0.2820    0.0780 ho        1 MOL      0.421966
    177 O24        -0.2770   -4.3710    1.5980 oh        1 MOL     -0.867939
    178 H84        -0.6630   -5.0550    1.0450 ho        1 MOL      0.421966
    179 H85         0.4930   -4.7860    1.9850 ho        1 MOL      0.421966
    180 O25        -2.4510   -0.0160    3.3260 oh        1 MOL     -0.867939
    181 H86        -3.3730    0.0800    3.0910 ho        1 MOL      0.421966
    182 H87        -2.4100    0.2350    4.2470 ho        1 MOL      0.421966
    183 O26        -1.4290   -2.5240    4.2020 oh        1 MOL     -0.867939
    184 H88        -0.9670   -3.1380    4.7720 ho        1 MOL      0.421966
    185 H89        -2.3130   -2.4780    4.5810 ho        1 MOL      0.421966
@<TRIPOS>BOND
     1    1    2 1   
     2    1    4 1   
     3    1    5 1   
     4    1    6 1   
     5    2    3 2   
     6    2    7 1   
     7    7    8 1   
     8    7   15 1   
     9    8    9 1   
    10    8   11 1   
    11    8   16 1   
    12    9   10 2   
    13    9   19 1   
    14   11   12 1   
    15   11   17 1   
    16   11   18 1   
    17   12   13 1   
    18   12   14 1   
    19   19   20 1   
    20   19   28 1   
    21   20   21 1   
    22   20   23 1   
    23   20   29 1   
    24   21   22 2   
    25   21   41 1   
    26   23   24 1   
    27   23   30 1   
    28   23   31 1   
    29   24   25 1   
    30   24   32 1   
    31   24   33 1   
    32   25   26 1   
    33   25   34 1   
    34   25   35 1   
    35   26   27 1   
    36   26   36 1   
    37   26   37 1   
    38   27   38 1   
    39   27   39 1   
    40   27   40 1   
    41   41   42 1   
    42   41   49 1   
    43   42   43 1   
    44   42   45 1   
    45   42   50 1   
    46   43   44 2   
    47   43   53 1   
    48   45   46 1   
    49   45   51 1   
    50   45   52 1   
    51   46   47 1   
    52   46   48 1   
    53   53   54 1   
    54   53   57 1   
    55   54   55 1   
    56   54   58 1   
    57   54   59 1   
    58   55   56 2   
    59   55   60 1   
    60   60   61 1   
    61   60   68 1   
    62   61   62 1   
    63   61   64 1   
    64   61   69 1   
    65   62   63 2   
    66   62   74 1   
    67   64   65 1   
    68   64   70 1   
    69   64   71 1   
    70   65   66 1   
    71   65   67 2   
    72   66   72 1   
    73   66   73 1   
    74   74   75 1   
    75   74   78 1   
    76   75   76 1   
    77   75   79 1   
    78   75   80 1   
    79   76   77 2   
    80   76   81 1   
    81   81   82 1   
    82   81   93 1   
    83   82   83 1   
    84   82   85 1   
    85   82   94 1   
    86   83   84 2   
    87   83  102 1   
    88   85   86 1   
    89   85   95 1   
    90   85   96 1   
    91   86   87 ar  
    92   86   88 ar  
    93   87   89 ar  
    94   87   97 1   
    95   88   90 ar  
    96   88   98 1   
    97   89   91 ar  
    98   89   99 1   
    99   90   91 ar  
   100   90  100 1   
   101   91   92 1   
   102   92  101 1   
   103  102  103 1   
   104  102  110 1   
   105  103  104 1   
   106  103  106 1   
   107  103  111 1   
   108  104  105 2   
   109  104  121 1   
   110  106  107 1   
   111  106  108 1   
   112  106  112 1   
   113  107  109 1   
   114  107  113 1   
   115  107  114 1   
   116  108  115 1   
   117  108  116 1   
   118  108  117 1   
   119  109  118 1   
   120  109  119 1   
   121  109  120 1   
   122  121  122 1   
   123  121  127 1   
   124  122  123 1   
   125  122  125 1   
   126  122  128 1   
   127  123  124 2   
   128  123  132 1   
   129  125  126 1   
   130  125  129 1   
   131  125  130 1   
   132  126  131 1   
   133  132  133 1   
   134  132  137 1   
   135  133  134 1   
   136  133  136 1   
   137  133  138 1   
   138  134  135 2   
   139  134  142 1   
   140  136  139 1   
   141  136  140 1   
   142  136  141 1   
   143  142  143 1   
   144  142  147 1   
   145  143  144 1   
   146  143  146 1   
   147  143  148 1   
   148  144  145 2   
   149  144  152 1   
   150  146  149 1   
   151  146  150 1   
   152  146  151 1   
   153  152  153 1   
   154  152  161 1   
   155  153  154 1   
   156  153  156 1   
   157  153  162 1   
   158  154  155 2   
   159  154  167 1   
   160  156  157 1   
   161  156  163 1   
   162  156  164 1   
   163  157  158 1   
   164  157  165 1   
   165  157  166 1   
   166  158  159 1   
   167  158  160 1   
   168  167  168 1   
   169  167  172 1   
   170  168  169 1   
   171  168  170 1   
   172  168  171 1   
   173  174  175 1   
   174  174  176 1   
   175  177  178 1   
   176  177  179 1   
   177  180  181 1   
   178  180  182 1   
   179  183  184 1   
   180  183  185 1   
@<TRIPOS>SUBSTRUCTURE
     1 MOL         1 TEMP              0 ****  ****    0 ROOT
