@<TRIPOS>MOLECULE
MOL
  191   184     1     0     0
SMALL
resp


@<TRIPOS>ATOM
      1 C1         -1.5400   -0.3710   -3.6000 c3        1 MOL     -0.376483
      2 C2         -2.5900   -0.2770   -2.4880 c         1 MOL      0.621127
      3 O1         -2.5950    0.6060   -1.6900 o         1 MOL     -0.519911
      4 H1         -0.7990    0.4170   -3.4660 hc        1 MOL      0.109015
      5 H2         -1.0490   -1.3440   -3.5550 hc        1 MOL      0.109015
      6 H3         -2.0250   -0.2520   -4.5680 hc        1 MOL      0.109015
      7 N1         -3.5070   -1.2870   -2.4700 n         1 MOL     -0.488682
      8 C3         -4.6940   -1.3180   -1.7140 c3        1 MOL      0.108592
      9 C4         -4.9650   -2.6640   -1.0720 c         1 MOL      0.153474
     10 O2         -6.0630   -3.0440   -0.6570 o         1 MOL     -0.416461
     11 C5         -5.8560   -1.0810   -2.7290 c3        1 MOL      0.018795
     12 C6         -5.8040   -2.0620   -3.9690 c         1 MOL      0.606357
     13 O3         -6.3660   -1.7680   -5.0330 o         1 MOL     -0.656973
     14 O4         -5.2830   -3.1790   -3.8400 o         1 MOL     -0.656973
     15 H4         -3.4030   -2.0110   -3.1640 hn        1 MOL      0.273414
     16 H5         -4.6020   -0.5580   -0.9490 h1        1 MOL      0.054510
     17 H6         -5.8120   -0.1050   -3.1920 hc        1 MOL      0.013254
     18 H7         -6.8370   -1.1730   -2.2350 hc        1 MOL      0.013254
     19 N2         -3.9120   -3.4490   -0.8970 n         1 MOL     -0.187846
     20 C7         -3.9060   -4.6940   -0.0100 c3        1 MOL     -0.084696
     21 C8         -4.0630   -4.5360    1.5530 c         1 MOL      0.533201
     22 O5         -4.5430   -5.3790    2.2810 o         1 MOL     -0.513577
     23 C9         -4.7870   -5.8330   -0.6070 c3        1 MOL     -0.020046
     24 C10        -4.3160   -6.2310   -2.0350 c3        1 MOL      0.116894
     25 C11        -5.3230   -7.2920   -2.5970 c3        1 MOL     -0.211232
     26 C12        -6.7450   -6.7610   -2.8500 c3        1 MOL     -0.000318
     27 N3         -6.7590   -5.6140   -3.7890 n4        1 MOL     -0.346510
     28 H8         -2.9840   -3.1710   -1.1830 hn        1 MOL      0.223036
     29 H9         -2.8890   -5.0880   -0.0500 h1        1 MOL      0.086346
     30 H10        -5.8350   -5.5630   -0.5720 hc        1 MOL      0.046640
     31 H11        -4.8560   -6.7240    0.0220 hc        1 MOL      0.046640
     32 H12        -3.3260   -6.6720   -2.0510 hc        1 MOL     -0.017711
     33 H13        -4.2950   -5.3270   -2.6420 hc        1 MOL     -0.017711
     34 H14        -5.3280   -8.1760   -1.9560 hc        1 MOL      0.079293
     35 H15        -4.9120   -7.6380   -3.5400 hc        1 MOL      0.079293
     36 H16        -7.2870   -6.4680   -1.9370 hx        1 MOL      0.089338
     37 H17        -7.3350   -7.5760   -3.2690 hx        1 MOL      0.089338
     38 H18        -7.7330   -5.3430   -3.8430 hn        1 MOL      0.323215
     39 H19        -6.0970   -4.9130   -3.4640 hn        1 MOL      0.323215
     40 H20        -6.3790   -5.9230   -4.6700 hn        1 MOL      0.323215
     41 N4         -3.7190   -3.3150    1.9470 n         1 MOL     -0.389773
     42 C13        -4.2640   -2.7130    3.1440 c3        1 MOL      0.264093
     43 C14        -5.2130   -1.5480    2.6930 c         1 MOL      0.470219
     44 O6         -4.7260   -0.7000    1.8840 o         1 MOL     -0.501920
     45 C15        -3.2500   -2.2400    4.1480 c3        1 MOL     -0.472770
     46 C16        -2.0930   -1.3220    3.6700 c         1 MOL      0.924248
     47 O7         -1.4680   -1.5760    2.6310 o         1 MOL     -0.811291
     48 O8         -1.8460   -0.2930    4.2990 o         1 MOL     -0.811291
     49 H21        -3.5410   -2.5660    1.2870 hn        1 MOL      0.248031
     50 H22        -4.9640   -3.4110    3.6080 h1        1 MOL      0.013610
     51 H23        -2.7920   -3.1440    4.5550 hc        1 MOL      0.105179
     52 H24        -3.7740   -1.7130    4.9460 hc        1 MOL      0.105179
     53 N5         -6.4050   -1.4200    3.2340 n         1 MOL     -0.365477
     54 C17        -7.4470   -0.4580    2.8990 c3        1 MOL     -0.027575
     55 C18        -7.9080   -0.7940    1.4740 c         1 MOL      0.485603
     56 O9         -8.5350   -1.8610    1.3120 o         1 MOL     -0.527348
     57 H25        -6.6770   -2.1460    3.8820 hn        1 MOL      0.295562
     58 H26        -6.9950    0.5280    2.9980 h1        1 MOL      0.080555
     59 H27        -8.2940   -0.5780    3.5910 h1        1 MOL      0.080555
     60 N6         -7.6410    0.0220    0.4470 n         1 MOL     -0.421469
     61 C19        -6.9570    1.3730    0.4650 c3        1 MOL      0.189551
     62 C20        -6.5050    1.9200   -0.9360 c         1 MOL      0.540932
     63 O10        -7.2090    1.6270   -1.8520 o         1 MOL     -0.554497
     64 C21        -8.0110    2.2830    1.0380 c3        1 MOL     -0.364934
     65 C22        -7.4230    3.6290    1.5360 c         1 MOL      0.608626
     66 N7         -7.7210    4.7680    1.0040 n         1 MOL     -0.722567
     67 O11        -6.4660    3.5740    2.3250 o         1 MOL     -0.576616
     68 H28        -8.1600   -0.2190   -0.3780 hn        1 MOL      0.305083
     69 H29        -6.0550    1.4270    1.0810 h1        1 MOL      0.038844
     70 H30        -8.5930    1.7980    1.8120 hc        1 MOL      0.119715
     71 H31        -8.7100    2.5620    0.2400 hc        1 MOL      0.119715
     72 H32        -8.5420    4.8930    0.4360 hn        1 MOL      0.362933
     73 H33        -7.1980    5.5970    1.2750 hn        1 MOL      0.362933
     74 N8         -5.5890    2.8240   -1.1160 n         1 MOL     -0.400679
     75 C23        -4.7240    3.3830   -0.1390 c3        1 MOL     -0.133945
     76 C24        -3.4690    3.9200   -0.7850 c         1 MOL      0.477743
     77 O12        -3.5910    4.8230   -1.6340 o         1 MOL     -0.549383
     78 H34        -5.4230    3.0900   -2.0750 hn        1 MOL      0.329107
     79 H35        -4.5410    2.7120    0.6920 h1        1 MOL      0.091054
     80 H36        -5.1430    4.2610    0.3490 h1        1 MOL      0.091054
     81 N9         -2.2890    3.4810   -0.4540 n         1 MOL     -0.191613
     82 C25        -1.0430    3.8760   -1.0180 c3        1 MOL      0.085028
     83 C26         0.0540    2.7870   -0.7470 c         1 MOL      0.400461
     84 O13        -0.0370    1.9310    0.1520 o         1 MOL     -0.520059
     85 C27        -0.5800    5.1610   -0.3090 c3        1 MOL     -0.116264
     86 C28         0.4000    6.0640   -1.0450 ca        1 MOL     -0.067777
     87 C29         1.7360    6.2340   -0.6000 ca        1 MOL     -0.070261
     88 C30         0.0120    6.6810   -2.2670 ca        1 MOL     -0.070261
     89 C31         2.5940    7.1320   -1.2090 ca        1 MOL     -0.296525
     90 C32         1.0010    7.4440   -2.9710 ca        1 MOL     -0.296525
     91 C33         2.2680    7.7170   -2.4510 ca        1 MOL      0.396681
     92 O14         3.0910    8.5870   -3.1060 oh        1 MOL     -0.527405
     93 H37        -2.3170    2.7250    0.2170 hn        1 MOL      0.144326
     94 H38        -1.1520    3.9890   -2.0960 h1        1 MOL      0.062504
     95 H39        -0.1030    4.9910    0.6530 hc        1 MOL      0.073992
     96 H40        -1.4950    5.6750   -0.0110 hc        1 MOL      0.073992
     97 H41         2.0910    5.7320    0.2880 ha        1 MOL      0.115353
     98 H42        -1.0040    6.7060   -2.6330 ha        1 MOL      0.115353
     99 H43         3.6190    7.2580   -0.8840 ha        1 MOL      0.141335
    100 H44         0.6050    7.9190   -3.8590 ha        1 MOL      0.141335
    101 H45         2.6480    9.1360   -3.7520 ho        1 MOL      0.390538
    102 N10         1.0520    2.7440   -1.6400 n         1 MOL     -0.458041
    103 C34         2.2460    1.8520   -1.5170 c3        1 MOL      0.270274
    104 C35         3.0970    2.1970   -0.2790 c         1 MOL      0.423765
    105 O15         2.9760    3.2420    0.3590 o         1 MOL     -0.532911
    106 C36         2.9890    1.7820   -2.8820 c3        1 MOL      0.015637
    107 C37         3.3280    3.2540   -3.3990 c3        1 MOL      0.107244
    108 C38         4.2480    0.9360   -2.8700 c3        1 MOL     -0.173985
    109 C39         4.4140    4.1650   -2.7690 c3        1 MOL     -0.238823
    110 H46         0.9550    3.4430   -2.3640 hn        1 MOL      0.283670
    111 H47         1.8560    0.8360   -1.4060 h1        1 MOL      0.028296
    112 H48         2.2820    1.3350   -3.5820 hc        1 MOL      0.008112
    113 H49         2.4220    3.8480   -3.3820 hc        1 MOL     -0.018301
    114 H50         3.5580    3.1300   -4.4590 hc        1 MOL     -0.018301
    115 H51         5.0830    1.4310   -2.3770 hc        1 MOL      0.056718
    116 H52         4.0510   -0.0390   -2.4040 hc        1 MOL      0.056718
    117 H53         4.3810    0.7520   -3.9350 hc        1 MOL      0.056718
    118 H54         4.0290    5.1690   -2.9680 hc        1 MOL      0.072720
    119 H55         4.4920    4.0600   -1.6850 hc        1 MOL      0.072720
    120 H56         5.3720    3.9350   -3.2280 hc        1 MOL      0.072720
    121 N11         3.9020    1.2110    0.2130 n         1 MOL     -0.292478
    122 C40         4.8520    1.3810    1.2910 c3        1 MOL      0.077474
    123 C41         5.3440    0.0760    1.8410 c         1 MOL      0.521959
    124 O16         5.1750   -0.9310    1.1470 o         1 MOL     -0.416958
    125 C42         6.0560    2.1970    0.8650 c3        1 MOL     -0.047128
    126 O17         6.7580    1.3910   -0.0830 oh        1 MOL     -0.517075
    127 H57         3.8900    0.3020   -0.2320 hn        1 MOL      0.213679
    128 H58         4.3230    1.9010    2.0940 h1        1 MOL      0.000323
    129 H59         6.7090    2.4210    1.7100 h1        1 MOL      0.081398
    130 H60         5.7600    3.1670    0.4750 h1        1 MOL      0.081398
    131 H61         7.6920    1.5910    0.0600 ho        1 MOL      0.406457
    132 N12         5.7150    0.0420    3.1510 n         1 MOL     -0.615897
    133 C43         6.1120   -1.2100    3.7230 c3        1 MOL      0.221943
    134 C44         7.2850   -1.8240    3.0720 c         1 MOL      0.392555
    135 O18         7.3110   -3.0270    3.0620 o         1 MOL     -0.422063
    136 C45         4.8740   -2.1700    3.9980 c3        1 MOL     -0.348311
    137 H62         5.6000    0.8580    3.7420 hn        1 MOL      0.323648
    138 H63         6.5120   -0.9990    4.7260 h1        1 MOL      0.047726
    139 H64         5.1800   -3.1540    4.3460 hc        1 MOL      0.112212
    140 H65         4.3410   -1.6970    4.8280 hc        1 MOL      0.112212
    141 H66         4.3060   -2.2840    3.0700 hc        1 MOL      0.112212
    142 N13         8.2260   -0.9870    2.6100 n         1 MOL     -0.430513
    143 C46         9.4600   -1.4130    1.9780 c3        1 MOL      0.293470
    144 C47         9.1340   -2.3340    0.7240 c         1 MOL      0.295439
    145 O19         9.9290   -3.1860    0.5180 o         1 MOL     -0.442895
    146 C48        10.2780   -1.9670    3.0920 c3        1 MOL     -0.488700
    147 H67         8.1470    0.0210    2.7220 hn        1 MOL      0.240513
    148 H68         9.7670   -0.4290    1.6070 h1        1 MOL     -0.002588
    149 H69        11.2840   -1.9370    2.6540 hc        1 MOL      0.140552
    150 H70        10.1950   -1.3760    3.9980 hc        1 MOL      0.140552
    151 H71         9.8600   -2.9510    3.3100 hc        1 MOL      0.140552
    152 N14         8.1030   -2.0690   -0.1100 n         1 MOL     -0.066233
    153 C49         7.9660   -2.8390   -1.3720 c3        1 MOL     -0.341755
    154 C50         8.7700   -2.1780   -2.5670 c         1 MOL      0.470693
    155 O20         9.1130   -2.8710   -3.5520 o         1 MOL     -0.510719
    156 C51         6.4560   -2.9410   -1.7320 c3        1 MOL      0.655931
    157 C52         6.1220   -4.0320   -2.7090 c3        1 MOL     -0.451256
    158 C53         6.0920   -5.4750   -2.1310 c         1 MOL      0.775974
    159 O21         5.0720   -5.9570   -1.6070 o         1 MOL     -0.685985
    160 O22         7.1380   -6.1620   -2.1710 o         1 MOL     -0.685985
    161 H72         7.5270   -1.2580    0.0650 hn        1 MOL      0.047977
    162 H73         8.3630   -3.8180   -1.0870 h1        1 MOL      0.210995
    163 H74         6.2010   -1.9730   -2.1780 hc        1 MOL     -0.146787
    164 H75         5.8000   -3.0650   -0.8780 hc        1 MOL     -0.146787
    165 H76         6.9300   -4.1410   -3.4240 hc        1 MOL      0.053638
    166 H77         5.2550   -3.6830   -3.2590 hc        1 MOL      0.053638
    167 N15         9.0280   -0.9000   -2.5590 n         1 MOL     -0.167843
    168 C54         9.8460   -0.1980   -3.5310 c3        1 MOL     -0.218438
    169 H78        10.4370    0.5660   -3.0240 h1        1 MOL      0.098176
    170 H79        10.5130   -0.9050   -4.0230 h1        1 MOL      0.098176
    171 H80         9.2020    0.2750   -4.2740 h1        1 MOL      0.098176
    172 H81         8.7630   -0.4010   -1.7210 hn        1 MOL      0.136727
    173 Ca1        -0.3320    1.0830    2.8620 Ca        1 MOL      1.844762
    174 O23        -0.1880    2.5140    5.0240 oh        1 MOL     -0.883212
    175 O24        -2.5800    0.6980    1.0680 oh        1 MOL     -0.883212
    176 H82         0.4520    2.7470    5.6950 ho        1 MOL      0.421869
    177 H83        -2.6050    0.5060    0.1300 ho        1 MOL      0.421869
    178 H84        -0.9760    2.9940    5.2730 ho        1 MOL      0.421869
    179 H85        -3.3870    0.3190    1.4160 ho        1 MOL      0.421869
    180 O25         0.9400   -0.6370    1.1510 oh        1 MOL     -0.883212
    181 H86         1.7170   -0.8650    0.6380 ho        1 MOL      0.421869
    182 H87         0.2790   -1.2660    0.8680 ho        1 MOL      0.421869
    183 O26         1.4990    3.1300    2.5230 oh        1 MOL     -0.883212
    184 H88         1.8380    3.7560    3.1570 ho        1 MOL      0.421869
    185 H89         2.0250    3.2630    1.7380 ho        1 MOL      0.421869
    186 O27         1.5440   -0.2160    4.7620 oh        1 MOL     -0.883212
    187 H90         2.3910   -0.0250    5.1630 ho        1 MOL      0.421869
    188 H91         1.3620   -1.1280    4.9940 ho        1 MOL      0.421869
    189 O28        -1.9450    3.5670    2.8950 oh        1 MOL     -0.883212
    190 H92        -2.7620    3.3630    3.3540 ho        1 MOL      0.421869
    191 H93        -2.0020    4.5050    2.7160 ho        1 MOL      0.421869
@<TRIPOS>BOND
     1    1    2 1   
     2    1    4 1   
     3    1    5 1   
     4    1    6 1   
     5    2    3 2   
     6    2    7 1   
     7    7    8 1   
     8    7   15 1   
     9    8    9 1   
    10    8   11 1   
    11    8   16 1   
    12    9   10 2   
    13    9   19 1   
    14   11   12 1   
    15   11   17 1   
    16   11   18 1   
    17   12   13 1   
    18   12   14 1   
    19   19   20 1   
    20   19   28 1   
    21   20   21 1   
    22   20   23 1   
    23   20   29 1   
    24   21   22 2   
    25   21   41 1   
    26   23   24 1   
    27   23   30 1   
    28   23   31 1   
    29   24   25 1   
    30   24   32 1   
    31   24   33 1   
    32   25   26 1   
    33   25   34 1   
    34   25   35 1   
    35   26   27 1   
    36   26   36 1   
    37   26   37 1   
    38   27   38 1   
    39   27   39 1   
    40   27   40 1   
    41   41   42 1   
    42   41   49 1   
    43   42   43 1   
    44   42   45 1   
    45   42   50 1   
    46   43   44 2   
    47   43   53 1   
    48   45   46 1   
    49   45   51 1   
    50   45   52 1   
    51   46   47 1   
    52   46   48 1   
    53   53   54 1   
    54   53   57 1   
    55   54   55 1   
    56   54   58 1   
    57   54   59 1   
    58   55   56 2   
    59   55   60 1   
    60   60   61 1   
    61   60   68 1   
    62   61   62 1   
    63   61   64 1   
    64   61   69 1   
    65   62   63 2   
    66   62   74 1   
    67   64   65 1   
    68   64   70 1   
    69   64   71 1   
    70   65   66 1   
    71   65   67 2   
    72   66   72 1   
    73   66   73 1   
    74   74   75 1   
    75   74   78 1   
    76   75   76 1   
    77   75   79 1   
    78   75   80 1   
    79   76   77 2   
    80   76   81 1   
    81   81   82 1   
    82   81   93 1   
    83   82   83 1   
    84   82   85 1   
    85   82   94 1   
    86   83   84 2   
    87   83  102 1   
    88   85   86 1   
    89   85   95 1   
    90   85   96 1   
    91   86   87 ar  
    92   86   88 ar  
    93   87   89 ar  
    94   87   97 1   
    95   88   90 ar  
    96   88   98 1   
    97   89   91 ar  
    98   89   99 1   
    99   90   91 ar  
   100   90  100 1   
   101   91   92 1   
   102   92  101 1   
   103  102  103 1   
   104  102  110 1   
   105  103  104 1   
   106  103  106 1   
   107  103  111 1   
   108  104  105 2   
   109  104  121 1   
   110  106  107 1   
   111  106  108 1   
   112  106  112 1   
   113  107  109 1   
   114  107  113 1   
   115  107  114 1   
   116  108  115 1   
   117  108  116 1   
   118  108  117 1   
   119  109  118 1   
   120  109  119 1   
   121  109  120 1   
   122  121  122 1   
   123  121  127 1   
   124  122  123 1   
   125  122  125 1   
   126  122  128 1   
   127  123  124 2   
   128  123  132 1   
   129  125  126 1   
   130  125  129 1   
   131  125  130 1   
   132  126  131 1   
   133  132  133 1   
   134  132  137 1   
   135  133  134 1   
   136  133  136 1   
   137  133  138 1   
   138  134  135 2   
   139  134  142 1   
   140  136  139 1   
   141  136  140 1   
   142  136  141 1   
   143  142  143 1   
   144  142  147 1   
   145  143  144 1   
   146  143  146 1   
   147  143  148 1   
   148  144  145 2   
   149  144  152 1   
   150  146  149 1   
   151  146  150 1   
   152  146  151 1   
   153  152  153 1   
   154  152  161 1   
   155  153  154 1   
   156  153  156 1   
   157  153  162 1   
   158  154  155 2   
   159  154  167 1   
   160  156  157 1   
   161  156  163 1   
   162  156  164 1   
   163  157  158 1   
   164  157  165 1   
   165  157  166 1   
   166  158  159 1   
   167  158  160 1   
   168  167  168 1   
   169  167  172 1   
   170  168  169 1   
   171  168  170 1   
   172  168  171 1   
   173  174  176 1   
   174  174  178 1   
   175  175  177 1   
   176  175  179 1   
   177  180  181 1   
   178  180  182 1   
   179  183  184 1   
   180  183  185 1   
   181  186  187 1   
   182  186  188 1   
   183  189  190 1   
   184  189  191 1   
@<TRIPOS>SUBSTRUCTURE
     1 MOL         1 TEMP              0 ****  ****    0 ROOT
