@<TRIPOS>MOLECULE
MOL
  181   177     1     0     0
SMALL
resp


@<TRIPOS>ATOM
      1 C1         -6.8030    8.7830    1.4210 c3        1 MOL     -0.358002
      2 C2         -6.6040    7.3270    2.0280 c         1 MOL      0.693136
      3 O1         -6.0710    7.2810    3.1090 o         1 MOL     -0.593806
      4 H1         -7.8560    8.9370    1.1850 hc        1 MOL      0.092074
      5 H2         -6.4830    9.5280    2.1490 hc        1 MOL      0.092074
      6 H3         -6.2090    8.8830    0.5130 hc        1 MOL      0.092074
      7 N1         -7.0120    6.2360    1.4590 n         1 MOL     -0.564284
      8 C3         -7.7440    6.2050    0.1790 c3        1 MOL      0.104587
      9 C4         -6.9080    5.5720   -0.9850 c         1 MOL      0.567362
     10 O2         -7.4090    5.5900   -2.1120 o         1 MOL     -0.579158
     11 C5         -9.0230    5.4220    0.4180 c3        1 MOL     -0.162936
     12 C6         -8.8720    3.9590    0.7900 c         1 MOL      0.834185
     13 O3         -9.6630    3.5070    1.6900 o         1 MOL     -0.825245
     14 O4         -8.0470    3.1790    0.2410 o         1 MOL     -0.825245
     15 H4         -6.7900    5.3650    1.9260 hn        1 MOL      0.323288
     16 H5         -7.9000    7.1840   -0.2710 h1        1 MOL      0.044771
     17 H6         -9.5530    5.4070   -0.5280 hc        1 MOL      0.049423
     18 H7         -9.6230    5.9270    1.1710 hc        1 MOL      0.049423
     19 N2         -5.7470    5.0380   -0.7240 n         1 MOL     -0.524422
     20 C7         -4.8870    4.6650   -1.7920 c3        1 MOL      0.329119
     21 C8         -4.9060    3.1870   -2.1580 c         1 MOL      0.304497
     22 O5         -4.1610    2.8330   -3.0730 o         1 MOL     -0.513694
     23 C9         -3.4690    5.0320   -1.3780 c3        1 MOL     -0.339880
     24 H8         -5.5400    4.8540    0.2450 hn        1 MOL      0.279165
     25 H9         -5.1880    5.2730   -2.6470 h1        1 MOL      0.038704
     26 H10        -3.0410    4.2590   -0.7330 hc        1 MOL      0.100221
     27 H11        -2.8350    5.0530   -2.2640 hc        1 MOL      0.100221
     28 H12        -3.4730    6.0110   -0.8880 hc        1 MOL      0.100221
     29 N3         -5.8010    2.3980   -1.5780 n         1 MOL     -0.232618
     30 C10        -5.7520    0.9310   -1.7840 c3        1 MOL     -0.051957
     31 C11        -7.0470    0.1620   -1.6200 c         1 MOL      0.463541
     32 O6         -8.0110    0.5500   -0.9270 o         1 MOL     -0.509596
     33 C12        -4.7680    0.3820   -0.7850 c3        1 MOL      0.185153
     34 C13        -4.7990    0.9340    0.6400 c         1 MOL      0.601858
     35 O7         -3.7190    1.1440    1.2020 o         1 MOL     -0.666057
     36 O8         -5.8810    1.2400    1.1430 o         1 MOL     -0.666057
     37 H13        -6.5360    2.7710   -1.0030 hn        1 MOL      0.251001
     38 H14        -5.3370    0.7210   -2.7720 h1        1 MOL      0.041460
     39 H15        -3.7680    0.4950   -1.1900 hc        1 MOL     -0.037580
     40 H16        -4.8170   -0.7060   -0.7460 hc        1 MOL     -0.037580
     41 N4         -7.1160   -1.0080   -2.3300 n         1 MOL     -0.259713
     42 C14        -8.2780   -1.7820   -2.3230 c3        1 MOL     -0.340796
     43 C15        -8.0860   -3.0370   -1.4580 c         1 MOL      0.649082
     44 O9         -8.7550   -3.1240   -0.4220 o         1 MOL     -0.560538
     45 H17        -6.3730   -1.2560   -2.9600 hn        1 MOL      0.256409
     46 H18        -8.4360   -1.9140   -3.3950 h1        1 MOL      0.155572
     47 H19        -9.1420   -1.2570   -1.9340 h1        1 MOL      0.155572
     48 N5         -7.1000   -3.8730   -1.7150 n         1 MOL     -0.650438
     49 C16        -6.5770   -4.9090   -0.7950 c3        1 MOL      0.198799
     50 C17        -5.0920   -4.7570   -0.4230 c         1 MOL      0.564325
     51 O10        -4.6390   -5.5070    0.4570 o         1 MOL     -0.563750
     52 C18        -6.8990   -6.2760   -1.4730 c3        1 MOL     -0.323490
     53 C19        -8.3710   -6.5860   -1.5440 c         1 MOL      0.721084
     54 N6         -8.9490   -7.0540   -0.4630 n         1 MOL     -0.756117
     55 O11        -8.9870   -6.5620   -2.6360 o         1 MOL     -0.580600
     56 H20        -6.6300   -3.6910   -2.5900 hn        1 MOL      0.342600
     57 H21        -7.0930   -4.8090    0.1570 h1        1 MOL      0.047145
     58 H22        -6.4100   -7.1070   -0.9520 hc        1 MOL      0.107990
     59 H23        -6.5240   -6.2670   -2.4880 hc        1 MOL      0.107990
     60 H24        -8.4200   -7.2660    0.3790 hn        1 MOL      0.350131
     61 H25        -9.9030   -7.3840   -0.5180 hn        1 MOL      0.350131
     62 N7         -4.3640   -3.8260   -0.9410 n         1 MOL     -0.351329
     63 C20        -2.9920   -3.4650   -0.5010 c3        1 MOL     -0.094868
     64 C21        -2.0530   -4.6320   -0.7550 c         1 MOL      0.625664
     65 O12        -2.2380   -5.3570   -1.6810 o         1 MOL     -0.566257
     66 H26        -4.7160   -3.3930   -1.7770 hn        1 MOL      0.247310
     67 H27        -2.9610   -3.1290    0.5400 h1        1 MOL      0.078029
     68 H28        -2.5870   -2.6780   -1.1370 h1        1 MOL      0.078029
     69 N8         -1.0080   -4.8910    0.1010 n         1 MOL     -0.412511
     70 C22        -0.4950   -4.0380    1.1660 c3        1 MOL     -0.160383
     71 C23         0.9130   -3.5040    0.8160 c         1 MOL      0.521833
     72 O13         1.8930   -4.1540    1.1760 o         1 MOL     -0.512171
     73 C24        -0.5770   -4.7240    2.5720 c3        1 MOL      0.401032
     74 C25        -2.0090   -4.7460    3.2260 c3        1 MOL     -0.273189
     75 O14        -0.1310   -6.1140    2.5400 oh        1 MOL     -0.622646
     76 H29        -0.5060   -5.7590   -0.0110 hn        1 MOL      0.299558
     77 H30        -1.1500   -3.1670    1.2140 h1        1 MOL      0.067454
     78 H31        -0.0070   -4.1860    3.3270 h1        1 MOL      0.014527
     79 H32         0.7800   -6.1430    2.2240 ho        1 MOL      0.381936
     80 H33        -2.6000   -5.3900    2.5610 hc        1 MOL      0.073844
     81 H34        -2.0430   -5.0810    4.2660 hc        1 MOL      0.073844
     82 H35        -2.4520   -3.7520    3.2160 hc        1 MOL      0.073844
     83 N9          0.9590   -2.3030    0.2240 n         1 MOL     -0.418961
     84 C26         2.2060   -1.6890   -0.2670 c3        1 MOL      0.263397
     85 C27         2.6300   -0.4630    0.5680 c         1 MOL      0.287953
     86 O15         1.8930    0.5880    0.6540 o         1 MOL     -0.549155
     87 C28         2.0910   -1.3910   -1.7970 c3        1 MOL      0.092766
     88 C29         1.4760   -2.4700   -2.6870 c3        1 MOL     -0.189495
     89 C30         3.3770   -0.8570   -2.4010 c3        1 MOL     -0.077842
     90 C31         2.1310   -3.8680   -2.6290 c3        1 MOL     -0.191883
     91 H36         0.0460   -1.8830    0.0990 hn        1 MOL      0.233197
     92 H37         2.9780   -2.4530   -0.1500 h1        1 MOL      0.063554
     93 H38         1.4610   -0.4950   -1.8270 hc        1 MOL     -0.009347
     94 H39         1.4750   -2.0850   -3.7070 hc        1 MOL      0.066953
     95 H40         0.4350   -2.5170   -2.3650 hc        1 MOL      0.066953
     96 H41         3.7010    0.1140   -2.0250 hc        1 MOL      0.042009
     97 H42         4.1250   -1.6550   -2.3760 hc        1 MOL      0.042009
     98 H43         3.1580   -0.6030   -3.4410 hc        1 MOL      0.042009
     99 H44         2.3760   -4.1720   -1.6150 hc        1 MOL      0.049019
    100 H45         1.4990   -4.6500   -3.0340 hc        1 MOL      0.049019
    101 H46         3.0340   -3.8810   -3.2450 hc        1 MOL      0.049019
    102 N10         3.8770   -0.3730    1.0410 n         1 MOL     -0.173236
    103 C32         4.9970   -1.3150    0.9220 c3        1 MOL      0.122167
    104 C33         6.3690   -0.5480    0.9870 c         1 MOL      0.639309
    105 O16         6.3770    0.6500    1.2040 o         1 MOL     -0.532581
    106 C34         4.9310   -2.3620    2.0110 c3        1 MOL     -0.233143
    107 C35         4.9790   -1.8680    3.4700 c         1 MOL      0.684109
    108 O17         4.5940   -2.7650    4.3080 o         1 MOL     -0.714802
    109 O18         5.4100   -0.7520    3.7980 o         1 MOL     -0.714802
    110 H47         3.9890    0.5390    1.4670 hn        1 MOL      0.235615
    111 H48         4.9540   -1.7320   -0.0850 h1        1 MOL     -0.030650
    112 H49         5.7180   -3.1140    1.9610 hc        1 MOL      0.012957
    113 H50         3.9710   -2.8640    1.8850 hc        1 MOL      0.012957
    114 N11         7.4640   -1.2620    0.6920 n         1 MOL     -0.596340
    115 C36         8.8240   -0.7910    0.8220 c3        1 MOL      0.407594
    116 C37         9.4270   -0.7960   -0.6060 c         1 MOL      0.273921
    117 O19         9.1730   -1.7240   -1.4110 o         1 MOL     -0.490200
    118 C38         9.6280   -1.7150    1.6930 c3        1 MOL     -0.153291
    119 C39        11.0700   -1.2620    1.8770 ca        1 MOL      0.036620
    120 C40        12.1220   -1.7440    1.0360 ca        1 MOL     -0.140773
    121 C41        11.4230   -0.4190    2.9520 ca        1 MOL     -0.140773
    122 C42        13.4720   -1.3260    1.3000 ca        1 MOL     -0.138811
    123 C43        12.7890   -0.0010    3.2120 ca        1 MOL     -0.138811
    124 C44        13.7500   -0.3910    2.2740 ca        1 MOL     -0.095091
    125 H51         7.2790   -2.2590    0.6100 hn        1 MOL      0.291008
    126 H52         8.7550    0.1940    1.2980 h1        1 MOL      0.030179
    127 H53         9.7320   -2.6230    1.1020 hc        1 MOL      0.061693
    128 H54         9.0980   -1.9610    2.6190 hc        1 MOL      0.061693
    129 H55        11.9820   -2.5690    0.3480 ha        1 MOL      0.131433
    130 H56        10.6400    0.0340    3.5540 ha        1 MOL      0.131433
    131 H57        14.2550   -1.7410    0.6720 ha        1 MOL      0.112906
    132 H58        13.0470    0.6560    4.0310 ha        1 MOL      0.112906
    133 H59        14.7800   -0.0750    2.3430 ha        1 MOL      0.083881
    134 N12        10.3700    0.1600   -0.9050 n         1 MOL      0.014957
    135 C45        10.7410    1.3470   -0.1570 c3        1 MOL     -0.021021
    136 C46         9.5490    2.3220   -0.0210 c         1 MOL      0.458108
    137 O20         9.3870    2.9890    0.9670 o         1 MOL     -0.567092
    138 C47        11.9590    1.9080   -0.8670 c3        1 MOL     -0.020151
    139 C48        11.7530    1.5090   -2.3020 c3        1 MOL      0.118088
    140 C49        11.1510    0.1380   -2.1060 c3        1 MOL     -0.167340
    141 H60        11.0790    1.0800    0.8410 h1        1 MOL      0.046740
    142 H61        12.1210    2.9830   -0.7560 hc        1 MOL      0.007125
    143 H62        12.8760    1.4540   -0.4890 hc        1 MOL      0.007125
    144 H63        11.0640    2.2100   -2.7840 hc        1 MOL     -0.011660
    145 H64        12.6680    1.5990   -2.8810 hc        1 MOL     -0.011660
    146 H65        10.6410   -0.1370   -3.0240 h1        1 MOL      0.049115
    147 H66        11.9840   -0.5390   -1.8880 h1        1 MOL      0.049115
    148 N13         8.7000    2.3420   -1.0240 n         1 MOL     -0.359816
    149 C50         7.4530    3.1880   -1.1840 c3        1 MOL      0.217866
    150 C51         7.7690    4.6670   -1.2050 c         1 MOL      0.398442
    151 O21         8.1320    5.1830   -2.2460 o         1 MOL     -0.577776
    152 C52         6.7850    2.7500   -2.5040 c3        1 MOL      0.143979
    153 C53         6.3310    1.3330   -2.4090 c3        1 MOL     -0.102674
    154 C54         5.8700    0.8610   -3.7570 c         1 MOL      0.752751
    155 O22         4.8660    1.2030   -4.3550 o         1 MOL     -0.679367
    156 O23         6.5900    0.0790   -4.4500 o         1 MOL     -0.679367
    157 H67         9.0010    1.7000   -1.7430 hn        1 MOL      0.281977
    158 H68         6.7370    2.9600   -0.3930 h1        1 MOL      0.041107
    159 H69         7.5680    2.7500   -3.2580 hc        1 MOL     -0.032519
    160 H70         5.9890    3.4310   -2.8010 hc        1 MOL     -0.032519
    161 H71         5.5570    1.1970   -1.6420 hc        1 MOL     -0.064261
    162 H72         7.0550    0.6100   -2.0430 hc        1 MOL     -0.064261
    163 N14         7.6760    5.4580   -0.1360 n         1 MOL     -0.294548
    164 C55         7.1170    5.1530    1.2130 c3        1 MOL     -0.165373
    165 H73         7.7340    5.6260    1.9770 h1        1 MOL      0.089239
    166 H74         6.0990    5.5380    1.2810 h1        1 MOL      0.089239
    167 H75         7.1090    4.0740    1.3690 h1        1 MOL      0.089239
    168 H76         7.9050    6.4350   -0.2970 hn        1 MOL      0.248518
    169 Ca1        -8.4410    1.0660    1.6280 Ca        1 MOL      1.807101
    170 O24       -10.7350   -0.0380    0.7550 oh        1 MOL     -0.902395
    171 H77       -10.9310   -0.9350    0.5060 ho        1 MOL      0.415815
    172 H78       -11.6010    0.3740    0.8640 ho        1 MOL      0.415815
    173 O25        -9.1250   -0.4550    3.6520 oh        1 MOL     -0.902395
    174 H79        -8.8410   -1.3460    3.8530 ho        1 MOL      0.415815
    175 H80        -9.6000   -0.1680    4.4350 ho        1 MOL      0.415815
    176 O26        -7.2610   -1.3390    1.3390 oh        1 MOL     -0.902395
    177 H81        -7.7350   -2.0790    0.9670 ho        1 MOL      0.415815
    178 H82        -6.5970   -1.7390    1.9060 ho        1 MOL      0.415815
    179 O27        -7.3860    2.1850    3.9660 oh        1 MOL     -0.902395
    180 H83        -6.6860    2.7730    3.6870 ho        1 MOL      0.415815
    181 H84        -7.5920    2.4510    4.8580 ho        1 MOL      0.415815
@<TRIPOS>BOND
     1    1    2 1   
     2    1    4 1   
     3    1    5 1   
     4    1    6 1   
     5    2    3 2   
     6    2    7 1   
     7    7    8 1   
     8    7   15 1   
     9    8    9 1   
    10    8   11 1   
    11    8   16 1   
    12    9   10 2   
    13    9   19 1   
    14   11   12 1   
    15   11   17 1   
    16   11   18 1   
    17   12   13 1   
    18   12   14 1   
    19   19   20 1   
    20   19   24 1   
    21   20   21 1   
    22   20   23 1   
    23   20   25 1   
    24   21   22 2   
    25   21   29 1   
    26   23   26 1   
    27   23   27 1   
    28   23   28 1   
    29   29   30 1   
    30   29   37 1   
    31   30   31 1   
    32   30   33 1   
    33   30   38 1   
    34   31   32 2   
    35   31   41 1   
    36   33   34 1   
    37   33   39 1   
    38   33   40 1   
    39   34   35 1   
    40   34   36 1   
    41   41   42 1   
    42   41   45 1   
    43   42   43 1   
    44   42   46 1   
    45   42   47 1   
    46   43   44 2   
    47   43   48 1   
    48   48   49 1   
    49   48   56 1   
    50   49   50 1   
    51   49   52 1   
    52   49   57 1   
    53   50   51 2   
    54   50   62 1   
    55   52   53 1   
    56   52   58 1   
    57   52   59 1   
    58   53   54 1   
    59   53   55 2   
    60   54   60 1   
    61   54   61 1   
    62   62   63 1   
    63   62   66 1   
    64   63   64 1   
    65   63   67 1   
    66   63   68 1   
    67   64   65 2   
    68   64   69 1   
    69   69   70 1   
    70   69   76 1   
    71   70   71 1   
    72   70   73 1   
    73   70   77 1   
    74   71   72 2   
    75   71   83 1   
    76   73   74 1   
    77   73   75 1   
    78   73   78 1   
    79   74   80 1   
    80   74   81 1   
    81   74   82 1   
    82   75   79 1   
    83   83   84 1   
    84   83   91 1   
    85   84   85 1   
    86   84   87 1   
    87   84   92 1   
    88   85   86 2   
    89   85  102 1   
    90   87   88 1   
    91   87   89 1   
    92   87   93 1   
    93   88   90 1   
    94   88   94 1   
    95   88   95 1   
    96   89   96 1   
    97   89   97 1   
    98   89   98 1   
    99   90   99 1   
   100   90  100 1   
   101   90  101 1   
   102  102  103 1   
   103  102  110 1   
   104  103  104 1   
   105  103  106 1   
   106  103  111 1   
   107  104  105 2   
   108  104  114 1   
   109  106  107 1   
   110  106  112 1   
   111  106  113 1   
   112  107  108 1   
   113  107  109 1   
   114  114  115 1   
   115  114  125 1   
   116  115  116 1   
   117  115  118 1   
   118  115  126 1   
   119  116  117 2   
   120  116  134 1   
   121  118  119 1   
   122  118  127 1   
   123  118  128 1   
   124  119  120 ar  
   125  119  121 ar  
   126  120  122 ar  
   127  120  129 1   
   128  121  123 ar  
   129  121  130 1   
   130  122  124 ar  
   131  122  131 1   
   132  123  124 ar  
   133  123  132 1   
   134  124  133 1   
   135  134  135 1   
   136  134  140 1   
   137  135  136 1   
   138  135  138 1   
   139  135  141 1   
   140  136  137 2   
   141  136  148 1   
   142  138  139 1   
   143  138  142 1   
   144  138  143 1   
   145  139  140 1   
   146  139  144 1   
   147  139  145 1   
   148  140  146 1   
   149  140  147 1   
   150  148  149 1   
   151  148  157 1   
   152  149  150 1   
   153  149  152 1   
   154  149  158 1   
   155  150  151 2   
   156  150  163 1   
   157  152  153 1   
   158  152  159 1   
   159  152  160 1   
   160  153  154 1   
   161  153  161 1   
   162  153  162 1   
   163  154  155 1   
   164  154  156 1   
   165  163  164 1   
   166  163  168 1   
   167  164  165 1   
   168  164  166 1   
   169  164  167 1   
   170  170  171 1   
   171  170  172 1   
   172  173  174 1   
   173  173  175 1   
   174  176  177 1   
   175  176  178 1   
   176  179  180 1   
   177  179  181 1   
@<TRIPOS>SUBSTRUCTURE
     1 MOL         1 TEMP              0 ****  ****    0 ROOT
