@<TRIPOS>MOLECULE
MOL
  198   191     1     0     0
SMALL
resp


@<TRIPOS>ATOM
      1 C1          6.9080    1.8170    5.0760 c3        1 MOL     -0.288980
      2 C2          6.0340    1.5180    3.8210 c         1 MOL      0.759979
      3 O1          5.3660    2.3640    3.2300 o         1 MOL     -0.606184
      4 H1          6.7930    2.8630    5.3570 hc        1 MOL      0.071152
      5 H2          6.5880    1.1820    5.9020 hc        1 MOL      0.071152
      6 H3          7.9550    1.6150    4.8470 hc        1 MOL      0.071152
      7 N1          5.9880    0.2470    3.4350 n         1 MOL     -0.580371
      8 C3          5.5310   -0.2050    2.1080 c3        1 MOL      0.206139
      9 C4          3.9920   -0.1410    1.8590 c         1 MOL      0.072354
     10 O2          3.4880   -0.5990    0.8420 o         1 MOL     -0.158359
     11 C5          6.1170   -1.6030    1.8690 c3        1 MOL     -0.117224
     12 C6          7.5910   -1.7050    2.0870 c         1 MOL      0.784194
     13 O3          8.2920   -1.9200    1.1170 o         1 MOL     -0.727481
     14 O4          8.0640   -1.8820    3.2380 o         1 MOL     -0.727481
     15 H4          6.4380   -0.4040    4.0820 hn        1 MOL      0.263507
     16 H5          5.9120    0.5040    1.3710 h1        1 MOL      0.073445
     17 H6          5.8600   -1.8100    0.8310 hc        1 MOL     -0.028943
     18 H7          5.6070   -2.2340    2.5890 hc        1 MOL     -0.028943
     19 N2          3.2460    0.3850    2.8680 n         1 MOL     -0.029458
     20 C7          1.7700    0.3960    2.9060 c3        1 MOL      0.220346
     21 C8          1.1770    1.7640    2.5500 c         1 MOL      0.375096
     22 O5          1.7460    2.7550    3.0580 o         1 MOL     -0.501942
     23 C9          1.3260   -0.0320    4.2990 c3        1 MOL     -0.471183
     24 C10         1.6910   -1.4350    4.5130 c3        1 MOL     -0.009604
     25 C11         1.0450   -1.9360    5.8320 c3        1 MOL      0.314464
     26 C12         1.4930   -3.3070    6.2630 c3        1 MOL     -0.226792
     27 N3          0.8070   -3.7950    7.5300 n4        1 MOL     -0.267397
     28 H8          3.7700    0.9460    3.5180 hn        1 MOL      0.157177
     29 H9          1.3620   -0.3140    2.1810 h1        1 MOL     -0.012479
     30 H10         0.2400    0.0070    4.3900 hc        1 MOL      0.141441
     31 H11         1.7740    0.6310    5.0320 hc        1 MOL      0.141441
     32 H12         2.7820   -1.4620    4.5750 hc        1 MOL      0.019932
     33 H13         1.3540   -2.0740    3.6960 hc        1 MOL      0.019932
     34 H14        -0.0450   -1.9120    5.7150 hc        1 MOL     -0.040172
     35 H15         1.2990   -1.2650    6.6530 hc        1 MOL     -0.040172
     36 H16         2.5350   -3.0400    6.4690 hx        1 MOL      0.134060
     37 H17         1.2250   -3.9090    5.3890 hx        1 MOL      0.134060
     38 H18         0.9590   -3.1810    8.3160 hn        1 MOL      0.286151
     39 H19        -0.1780   -3.9350    7.3520 hn        1 MOL      0.286151
     40 H20         1.1940   -4.6790    7.8390 hn        1 MOL      0.286151
     41 N4          0.0570    1.9570    1.8590 n         1 MOL     -0.238810
     42 C13        -0.9200    1.0280    1.1920 c3        1 MOL      0.026050
     43 C14        -1.5450   -0.0700    2.1120 c         1 MOL      0.525032
     44 O6         -0.8350   -1.1080    2.3850 o         1 MOL     -0.558986
     45 C15        -0.3610    0.4380   -0.1020 c3        1 MOL     -0.226723
     46 C16        -0.1150    1.5560   -1.2240 c         1 MOL      0.699609
     47 O7         -0.5260    2.7310   -1.0890 o         1 MOL     -0.717523
     48 O8          0.4800    1.2300   -2.2780 o         1 MOL     -0.717523
     49 H21        -0.1740    2.9390    1.7440 hn        1 MOL      0.170566
     50 H22        -1.7770    1.5830    0.8240 h1        1 MOL     -0.011352
     51 H23        -1.1010   -0.1970   -0.5850 hc        1 MOL      0.082974
     52 H24         0.5630   -0.0790    0.1630 hc        1 MOL      0.082974
     53 N5         -2.8060    0.0150    2.5300 n         1 MOL     -0.431670
     54 C17        -3.6820    1.1920    2.5740 c3        1 MOL     -0.025431
     55 C18        -4.9290    1.0060    3.4310 c         1 MOL      0.505541
     56 O9         -4.9610    0.1180    4.3390 o         1 MOL     -0.542368
     57 H25        -3.2330   -0.8370    2.8680 hn        1 MOL      0.321469
     58 H26        -4.0030    1.2520    1.5400 h1        1 MOL      0.083447
     59 H27        -3.1250    2.1050    2.8270 h1        1 MOL      0.083447
     60 N6         -6.0340    1.8090    3.2460 n         1 MOL     -0.314835
     61 C19        -6.0690    2.9410    2.3380 c3        1 MOL     -0.159910
     62 C20        -6.8080    2.5380    1.0440 c         1 MOL      0.413459
     63 O10        -7.8400    1.8320    1.0810 o         1 MOL     -0.425500
     64 C21        -6.8690    4.1150    2.9000 c3        1 MOL     -0.017539
     65 C22        -8.2680    3.8440    3.4360 c         1 MOL      0.735058
     66 O11        -9.1620    4.5800    3.0340 o         1 MOL     -0.664611
     67 O12        -8.4250    3.1150    4.4450 o         1 MOL     -0.664611
     68 H28        -6.8000    1.6980    3.9010 hn        1 MOL      0.259958
     69 H29        -5.0380    3.2740    2.2480 h1        1 MOL      0.054414
     70 H30        -6.9200    4.7720    2.0390 hc        1 MOL     -0.013872
     71 H31        -6.3830    4.5870    3.7610 hc        1 MOL     -0.013872
     72 N7         -6.3350    3.0860   -0.0830 n         1 MOL     -0.048176
     73 C23        -6.9630    3.0010   -1.3790 c3        1 MOL     -0.460531
     74 C24        -6.7620    1.5990   -1.9240 c         1 MOL      0.550057
     75 O13        -7.6590    0.8840   -2.4860 o         1 MOL     -0.539314
     76 H32        -5.5080    3.6460   -0.0010 hn        1 MOL      0.150315
     77 H33        -6.4020    3.6460   -2.0530 h1        1 MOL      0.178281
     78 H34        -8.0050    3.3090   -1.4280 h1        1 MOL      0.178281
     79 N8         -5.5320    1.0670   -1.8300 n         1 MOL     -0.376115
     80 C25        -5.0550   -0.2940   -2.1310 c3        1 MOL      0.001315
     81 C26        -5.5310   -1.2450   -1.0470 c         1 MOL      0.452681
     82 O14        -5.5090   -0.9050    0.1760 o         1 MOL     -0.494048
     83 C27        -3.5780   -0.2820   -2.3890 c3        1 MOL      0.200795
     84 C28        -3.0410    0.4720   -3.5580 c3        1 MOL     -0.496461
     85 O15        -3.3100   -1.6080   -2.7830 oh        1 MOL     -0.419506
     86 H35        -4.8620    1.6280   -1.3100 hn        1 MOL      0.195904
     87 H36        -5.5410   -0.6480   -3.0460 h1        1 MOL      0.105009
     88 H37        -3.0110    0.0520   -1.5180 h1        1 MOL      0.121299
     89 H38        -2.5720   -1.8720   -2.2160 ho        1 MOL      0.207441
     90 H39        -3.4670    1.4550   -3.3810 hc        1 MOL      0.140040
     91 H40        -1.9630    0.3490   -3.5540 hc        1 MOL      0.140040
     92 H41        -3.4430    0.0230   -4.4660 hc        1 MOL      0.140040
     93 N9         -5.6930   -2.5100   -1.3170 n         1 MOL     -0.157366
     94 C29        -5.7170   -3.6910   -0.4330 c3        1 MOL     -0.195384
     95 C30        -4.3410   -4.4100   -0.1990 c         1 MOL      0.498923
     96 O16        -4.2440   -5.2850    0.6010 o         1 MOL     -0.549144
     97 C31        -6.7150   -4.7540   -0.9570 c3        1 MOL      0.194720
     98 C32        -6.2950   -5.2140   -2.3900 c3        1 MOL      0.314753
     99 C33        -8.0520   -4.1130   -0.8150 c3        1 MOL     -0.265182
    100 C34        -7.0430   -6.5370   -2.6450 c3        1 MOL     -0.414579
    101 H42        -5.7590   -2.6910   -2.3120 hn        1 MOL      0.154713
    102 H43        -6.0930   -3.4100    0.5550 h1        1 MOL      0.133955
    103 H44        -6.7730   -5.6110   -0.2820 hc        1 MOL      0.013887
    104 H45        -5.2470   -5.4870   -2.4640 hc        1 MOL     -0.050686
    105 H46        -6.5530   -4.5720   -3.2260 hc        1 MOL     -0.050686
    106 H47        -8.2850   -3.9160    0.2300 hc        1 MOL      0.064445
    107 H48        -8.0430   -3.1250   -1.2970 hc        1 MOL      0.064445
    108 H49        -8.8070   -4.7390   -1.2840 hc        1 MOL      0.064445
    109 H50        -6.9120   -7.2430   -1.8170 hc        1 MOL      0.085488
    110 H51        -8.0640   -6.4000   -3.0040 hc        1 MOL      0.085488
    111 H52        -6.4210   -7.0380   -3.3810 hc        1 MOL      0.085488
    112 N10        -3.3920   -4.1080   -0.9980 n         1 MOL     -0.191768
    113 C35        -2.1250   -4.7800   -1.1530 c3        1 MOL      0.083091
    114 C36        -0.9700   -3.7830   -1.1100 c         1 MOL      0.383862
    115 O17        -1.1280   -2.6310   -1.5420 o         1 MOL     -0.316558
    116 C37        -2.0750   -5.7180   -2.3770 c3        1 MOL      0.139591
    117 C38        -2.2930   -5.0440   -3.7480 c3        1 MOL     -0.248638
    118 O18        -2.9880   -6.8420   -2.2030 oh        1 MOL     -0.607733
    119 H53        -3.7340   -3.4900   -1.7080 hn        1 MOL     -0.004434
    120 H54        -2.0630   -5.4010   -0.2670 h1        1 MOL      0.099088
    121 H55        -1.0610   -6.1050   -2.5210 h1        1 MOL      0.038426
    122 H56        -2.8930   -7.4860   -2.9060 ho        1 MOL      0.420693
    123 H57        -3.2830   -4.6000   -3.8300 hc        1 MOL      0.085264
    124 H58        -1.6420   -4.1850   -3.8460 hc        1 MOL      0.085264
    125 H59        -2.2450   -5.7820   -4.5550 hc        1 MOL      0.085264
    126 N11         0.2530   -4.1620   -0.6180 n         1 MOL     -0.435769
    127 C39         1.3750   -3.3030   -0.3790 c3        1 MOL      0.067699
    128 C40         2.1060   -2.9130   -1.7070 c         1 MOL      0.392730
    129 O19         1.7810   -3.4330   -2.7860 o         1 MOL     -0.513464
    130 C41         2.3750   -3.7440    0.6880 c3        1 MOL      0.476951
    131 C42         3.3860   -4.7520    0.2360 c3        1 MOL     -0.135176
    132 O20         1.7360   -4.1990    1.8920 oh        1 MOL     -0.634059
    133 H60         0.3440   -5.1380   -0.3850 hn        1 MOL      0.275350
    134 H61         0.9730   -2.3450   -0.0390 h1        1 MOL      0.105345
    135 H62         2.8460   -2.8230    1.0660 h1        1 MOL     -0.040266
    136 H63         2.4080   -4.2800    2.5710 ho        1 MOL      0.331052
    137 H64         4.0260   -4.2650   -0.5110 hc        1 MOL      0.019465
    138 H65         4.0320   -5.1010    1.0380 hc        1 MOL      0.019465
    139 H66         2.9480   -5.6740   -0.1420 hc        1 MOL      0.019465
    140 N12         3.1530   -2.0550   -1.6830 n         1 MOL     -0.277900
    141 C43         3.8360   -1.4870   -2.8910 c3        1 MOL     -0.034523
    142 C44         4.1590   -0.0010   -2.7710 c         1 MOL      0.620724
    143 O21         4.3750    0.5700   -3.8360 o         1 MOL     -0.653932
    144 C45         5.0950   -2.1730   -3.3460 c3        1 MOL     -0.040073
    145 C46         6.2190   -2.2830   -2.3030 c3        1 MOL     -0.140754
    146 C47         7.4020   -3.0640   -2.9040 c3        1 MOL      0.054416
    147 C48         8.5820   -3.1330   -2.0150 c3        1 MOL      0.062956
    148 N13         9.5410   -4.2600   -2.2170 n4        1 MOL     -0.516349
    149 H67         3.4160   -1.8070   -0.7370 hn        1 MOL      0.139843
    150 H68         3.1500   -1.5170   -3.7360 h1        1 MOL      0.131335
    151 H69         5.4260   -1.6730   -4.2560 hc        1 MOL      0.036202
    152 H70         4.8960   -3.1880   -3.6870 hc        1 MOL      0.036202
    153 H71         5.8340   -2.6650   -1.3540 hc        1 MOL      0.047057
    154 H72         6.6340   -1.2990   -2.0680 hc        1 MOL      0.047057
    155 H73         7.5770   -2.6570   -3.9000 hc        1 MOL      0.002511
    156 H74         7.0850   -4.0770   -3.1520 hc        1 MOL      0.002511
    157 H75         8.2060   -3.1610   -0.9910 hx        1 MOL      0.102271
    158 H76         9.0670   -2.1670   -2.1070 hx        1 MOL      0.102271
    159 H77        10.3090   -4.2410   -1.5650 hn        1 MOL      0.362010
    160 H78         9.0790   -5.1100   -1.9260 hn        1 MOL      0.362010
    161 H79         9.9140   -4.2760   -3.1590 hn        1 MOL      0.362010
    162 N14         4.0990    0.5780   -1.5970 n         1 MOL     -0.055708
    163 C49         4.2400    2.0240   -1.4220 c3        1 MOL     -0.081354
    164 C50         5.7460    2.3310   -1.2770 c         1 MOL      0.246002
    165 O22         6.4320    1.8260   -0.3810 o         1 MOL     -0.468076
    166 C51         3.3610    2.5880   -0.2380 c3        1 MOL      0.818525
    167 C52         3.7570    4.0170    0.0400 c3        1 MOL     -0.656273
    168 C53         3.3550    4.9650   -1.1250 c         1 MOL      0.693947
    169 O23         4.1890    5.3120   -1.9670 o         1 MOL     -0.737355
    170 O24         2.1460    5.3000   -1.1840 o         1 MOL     -0.737355
    171 H80         3.8420    0.0380   -0.7810 hn        1 MOL     -0.016196
    172 H81         3.8400    2.4850   -2.3290 h1        1 MOL      0.038447
    173 H82         3.5430    1.9460    0.6180 hc        1 MOL     -0.267505
    174 H83         2.3190    2.4770   -0.5230 hc        1 MOL     -0.267505
    175 H84         4.8300    4.1560    0.1690 hc        1 MOL      0.195596
    176 H85         3.2310    4.2830    0.9500 hc        1 MOL      0.195596
    177 N15         6.1910    3.2190   -2.1240 n         1 MOL     -0.193163
    178 C54         7.6030    3.6190   -2.2450 c3        1 MOL     -0.045722
    179 H86         7.7030    4.6760   -1.9970 h1        1 MOL      0.053678
    180 H87         8.2090    3.0260   -1.5600 h1        1 MOL      0.053678
    181 H88         7.9420    3.4530   -3.2680 h1        1 MOL      0.053678
    182 H89         5.5470    3.7320   -2.6960 hn        1 MOL      0.315461
    183 Ca1        -0.2530    5.2040   -1.8180 Ca        1 MOL      1.710278
    184 O25         0.5110    7.6120   -0.5820 oh        1 MOL     -0.835279
    185 H90         0.8300    8.5080   -0.5930 ho        1 MOL      0.418942
    186 H91         1.3060    7.0730   -0.6540 ho        1 MOL      0.418942
    187 O26        -1.7680    4.2590   -3.7650 oh        1 MOL     -0.835279
    188 H92        -1.3600    4.2020   -4.6350 ho        1 MOL      0.418942
    189 H93        -2.7040    4.3290   -3.9480 ho        1 MOL      0.418942
    190 O27         1.1630    6.3110   -4.0070 oh        1 MOL     -0.835279
    191 H94         1.8270    6.8920   -3.6410 ho        1 MOL      0.418942
    192 H95         1.6510    5.5400   -4.2970 ho        1 MOL      0.418942
    193 O28        -1.6200    7.1240   -2.9700 oh        1 MOL     -0.835279
    194 H96        -1.6090    7.8670   -2.3690 ho        1 MOL      0.418942
    195 H97        -2.4450    7.2130   -3.4470 ho        1 MOL      0.418942
    196 O29         1.1150    3.3530   -3.7510 oh        1 MOL     -0.835279
    197 H98         0.9320    2.6510   -3.1290 ho        1 MOL      0.418942
    198 H99         1.6860    2.9570   -4.4070 ho        1 MOL      0.418942
@<TRIPOS>BOND
     1    1    2 1   
     2    1    4 1   
     3    1    5 1   
     4    1    6 1   
     5    2    3 2   
     6    2    7 1   
     7    7    8 1   
     8    7   15 1   
     9    8    9 1   
    10    8   11 1   
    11    8   16 1   
    12    9   10 2   
    13    9   19 1   
    14   11   12 1   
    15   11   17 1   
    16   11   18 1   
    17   12   13 1   
    18   12   14 1   
    19   19   20 1   
    20   19   28 1   
    21   20   21 1   
    22   20   23 1   
    23   20   29 1   
    24   21   22 2   
    25   21   41 1   
    26   23   24 1   
    27   23   30 1   
    28   23   31 1   
    29   24   25 1   
    30   24   32 1   
    31   24   33 1   
    32   25   26 1   
    33   25   34 1   
    34   25   35 1   
    35   26   27 1   
    36   26   36 1   
    37   26   37 1   
    38   27   38 1   
    39   27   39 1   
    40   27   40 1   
    41   41   42 1   
    42   41   49 1   
    43   42   43 1   
    44   42   45 1   
    45   42   50 1   
    46   43   44 2   
    47   43   53 1   
    48   45   46 1   
    49   45   51 1   
    50   45   52 1   
    51   46   47 1   
    52   46   48 1   
    53   53   54 1   
    54   53   57 1   
    55   54   55 1   
    56   54   58 1   
    57   54   59 1   
    58   55   56 2   
    59   55   60 1   
    60   60   61 1   
    61   60   68 1   
    62   61   62 1   
    63   61   64 1   
    64   61   69 1   
    65   62   63 2   
    66   62   72 1   
    67   64   65 1   
    68   64   70 1   
    69   64   71 1   
    70   65   66 1   
    71   65   67 1   
    72   72   73 1   
    73   72   76 1   
    74   73   74 1   
    75   73   77 1   
    76   73   78 1   
    77   74   75 2   
    78   74   79 1   
    79   79   80 1   
    80   79   86 1   
    81   80   81 1   
    82   80   83 1   
    83   80   87 1   
    84   81   82 2   
    85   81   93 1   
    86   83   84 1   
    87   83   85 1   
    88   83   88 1   
    89   84   90 1   
    90   84   91 1   
    91   84   92 1   
    92   85   89 1   
    93   93   94 1   
    94   93  101 1   
    95   94   95 1   
    96   94   97 1   
    97   94  102 1   
    98   95   96 2   
    99   95  112 1   
   100   97   98 1   
   101   97   99 1   
   102   97  103 1   
   103   98  100 1   
   104   98  104 1   
   105   98  105 1   
   106   99  106 1   
   107   99  107 1   
   108   99  108 1   
   109  100  109 1   
   110  100  110 1   
   111  100  111 1   
   112  112  113 1   
   113  112  119 1   
   114  113  114 1   
   115  113  116 1   
   116  113  120 1   
   117  114  115 2   
   118  114  126 1   
   119  116  117 1   
   120  116  118 1   
   121  116  121 1   
   122  117  123 1   
   123  117  124 1   
   124  117  125 1   
   125  118  122 1   
   126  126  127 1   
   127  126  133 1   
   128  127  128 1   
   129  127  130 1   
   130  127  134 1   
   131  128  129 2   
   132  128  140 1   
   133  130  131 1   
   134  130  132 1   
   135  130  135 1   
   136  131  137 1   
   137  131  138 1   
   138  131  139 1   
   139  132  136 1   
   140  140  141 1   
   141  140  149 1   
   142  141  142 1   
   143  141  144 1   
   144  141  150 1   
   145  142  143 2   
   146  142  162 1   
   147  144  145 1   
   148  144  151 1   
   149  144  152 1   
   150  145  146 1   
   151  145  153 1   
   152  145  154 1   
   153  146  147 1   
   154  146  155 1   
   155  146  156 1   
   156  147  148 1   
   157  147  157 1   
   158  147  158 1   
   159  148  159 1   
   160  148  160 1   
   161  148  161 1   
   162  162  163 1   
   163  162  171 1   
   164  163  164 1   
   165  163  166 1   
   166  163  172 1   
   167  164  165 2   
   168  164  177 1   
   169  166  167 1   
   170  166  173 1   
   171  166  174 1   
   172  167  168 1   
   173  167  175 1   
   174  167  176 1   
   175  168  169 1   
   176  168  170 1   
   177  177  178 1   
   178  177  182 1   
   179  178  179 1   
   180  178  180 1   
   181  178  181 1   
   182  184  185 1   
   183  184  186 1   
   184  187  188 1   
   185  187  189 1   
   186  190  191 1   
   187  190  192 1   
   188  193  194 1   
   189  193  195 1   
   190  196  197 1   
   191  196  198 1   
@<TRIPOS>SUBSTRUCTURE
     1 MOL         1 TEMP              0 ****  ****    0 ROOT
