@<TRIPOS>MOLECULE
MOL
  187   181     1     0     0
SMALL
resp


@<TRIPOS>ATOM
      1 C1         12.0250    5.5270   -0.7570 c3        1 MOL     -0.409608
      2 C2         11.4830    4.4600    0.1750 c         1 MOL      0.812275
      3 O1         11.3340    4.6940    1.3910 o         1 MOL     -0.663981
      4 H1         11.2690    5.7780   -1.5000 hc        1 MOL      0.106878
      5 H2         12.2790    6.4180   -0.1810 hc        1 MOL      0.106878
      6 H3         12.9170    5.1530   -1.2590 hc        1 MOL      0.106878
      7 N1         11.0100    3.3250   -0.4020 n         1 MOL     -0.582760
      8 C3         10.9590    2.8570   -1.7880 c3        1 MOL      0.044859
      9 C4         11.2130    1.3070   -1.7920 c         1 MOL      0.478540
     10 O2         11.8810    0.8220   -0.9390 o         1 MOL     -0.477252
     11 C5          9.5960    3.2420   -2.4410 c3        1 MOL     -0.443517
     12 C6          8.4380    2.8600   -1.5880 c         1 MOL      0.861133
     13 O3          7.9250    1.6750   -1.7290 o         1 MOL     -0.730952
     14 O4          7.8510    3.6900   -0.8560 o         1 MOL     -0.730952
     15 H4         10.4700    2.7340    0.2130 hn        1 MOL      0.321945
     16 H5         11.7560    3.3200   -2.3740 h1        1 MOL      0.104554
     17 H6          9.5900    2.7810   -3.4310 hc        1 MOL      0.101922
     18 H7          9.6130    4.3340   -2.4960 hc        1 MOL      0.101922
     19 N2         10.8060    0.5820   -2.8080 n         1 MOL     -0.491692
     20 C7         11.1510   -0.8130   -3.0600 c3        1 MOL      0.124831
     21 C8         10.7760   -1.9050   -1.9870 c         1 MOL      0.491768
     22 O5         11.0740   -3.1070   -2.1650 o         1 MOL     -0.578555
     23 C9         12.5920   -0.9260   -3.6360 c3        1 MOL     -0.151854
     24 H8         10.2660    1.0340   -3.5260 hn        1 MOL      0.327951
     25 H9         10.4930   -1.0280   -3.9020 h1        1 MOL      0.059873
     26 H10        12.8090   -1.9350   -3.9950 hc        1 MOL      0.047822
     27 H11        12.7270   -0.2290   -4.4560 hc        1 MOL      0.047822
     28 H12        13.3570   -0.8320   -2.8690 hc        1 MOL      0.047822
     29 N3          9.9910   -1.6170   -0.9680 n         1 MOL     -0.213660
     30 C10         9.6080   -2.3980    0.1790 c3        1 MOL     -0.002595
     31 C11         8.2300   -3.0180    0.1690 c         1 MOL      0.533168
     32 O6          7.3210   -2.4250   -0.3300 o         1 MOL     -0.463383
     33 C12         9.7950   -1.5570    1.4590 c3        1 MOL     -0.018289
     34 C13         8.9950   -0.2750    1.3910 c         1 MOL      0.654297
     35 O7          9.3230    0.7670    0.7460 o         1 MOL     -0.692726
     36 O8          7.8060   -0.2850    1.8150 o         1 MOL     -0.692726
     37 H13         9.7040   -0.6420   -0.9600 hn        1 MOL      0.160704
     38 H14        10.3840   -3.1380    0.3460 h1        1 MOL      0.052712
     39 H15        10.8570   -1.3930    1.6330 hc        1 MOL      0.005515
     40 H16         9.4710   -2.0870    2.3570 hc        1 MOL      0.005515
     41 N4          7.9680   -4.1800    0.8050 n         1 MOL     -0.404600
     42 C14         6.8170   -5.0420    0.6610 c3        1 MOL     -0.343668
     43 C15         5.4270   -4.6200    1.0980 c         1 MOL      0.532415
     44 O9          4.4900   -5.3390    0.8410 o         1 MOL     -0.553931
     45 H17         8.7020   -4.5640    1.3950 hn        1 MOL      0.278857
     46 H18         7.0700   -5.9470    1.2190 h1        1 MOL      0.177602
     47 H19         6.7650   -5.3470   -0.3850 h1        1 MOL      0.177602
     48 N5          5.2340   -3.4510    1.6580 n         1 MOL     -0.142520
     49 C16         3.9480   -3.0140    2.1920 c3        1 MOL     -0.022904
     50 C17         3.0370   -2.3740    1.1270 c         1 MOL      0.679172
     51 O10         3.5580   -1.6280    0.3030 o         1 MOL     -0.551329
     52 C18         4.1380   -2.0890    3.3760 c3        1 MOL     -0.194365
     53 C19         5.0150   -2.5830    4.4510 c         1 MOL      0.659800
     54 N6          5.1440   -3.8570    4.6790 n         1 MOL     -0.773718
     55 O11         5.6540   -1.7460    5.1240 o         1 MOL     -0.577371
     56 H20         6.0040   -2.8090    1.7450 hn        1 MOL      0.130792
     57 H21         3.4940   -3.9390    2.5710 h1        1 MOL      0.040387
     58 H22         3.1520   -1.8070    3.7290 hc        1 MOL      0.063484
     59 H23         4.6130   -1.1620    3.0430 hc        1 MOL      0.063484
     60 H24         4.7700   -4.5460    4.0510 hn        1 MOL      0.357031
     61 H25         5.9760   -4.0900    5.2220 hn        1 MOL      0.357031
     62 N7          1.7580   -2.6400    1.0400 n         1 MOL     -0.712699
     63 C20         0.8440   -2.1850    0.0430 c3        1 MOL      0.521433
     64 C21         0.9920   -2.9430   -1.3550 c         1 MOL      0.449614
     65 O12         1.7920   -3.8040   -1.4500 o         1 MOL     -0.458995
     66 H26         1.2890   -3.2800    1.6710 hn        1 MOL      0.343065
     67 H27         1.0170   -1.1150   -0.0810 h1        1 MOL     -0.078243
     68 H28        -0.1900   -2.3480    0.3620 h1        1 MOL     -0.078243
     69 N8          0.3100   -2.4960   -2.4140 n         1 MOL     -0.482673
     70 C22        -0.5000   -1.2370   -2.4490 c3        1 MOL      0.027114
     71 C23        -1.7100   -1.5080   -1.5690 c         1 MOL      0.157679
     72 O13        -2.2310   -2.6270   -1.5640 o         1 MOL     -0.419126
     73 C24        -1.0070   -0.8010   -3.8230 c3        1 MOL      0.361291
     74 C25        -0.1020    0.1230   -4.5650 c3        1 MOL     -0.356543
     75 O14        -1.0450   -1.9320   -4.6780 oh        1 MOL     -0.613561
     76 H29         0.4420   -2.9760   -3.3030 hn        1 MOL      0.321665
     77 H30         0.0060   -0.4730   -1.8590 h1        1 MOL      0.041151
     78 H31        -1.9870   -0.3270   -3.7740 h1        1 MOL      0.069765
     79 H32        -1.8050   -2.5080   -4.5590 ho        1 MOL      0.403162
     80 H33        -0.0450    1.0730   -4.0480 hc        1 MOL      0.094851
     81 H34         0.9030   -0.2980   -4.5640 hc        1 MOL      0.094851
     82 H35        -0.5050    0.4230   -5.5350 hc        1 MOL      0.094851
     83 N9         -2.0760   -0.5180   -0.7620 n         1 MOL     -0.042583
     84 C26        -3.3930   -0.3120   -0.1600 c3        1 MOL     -0.000314
     85 C27        -4.3260    0.3830   -1.1540 c         1 MOL      0.404014
     86 O15        -3.9580    1.3690   -1.7240 o         1 MOL     -0.553162
     87 C28        -3.0830    0.4890    1.1240 c3        1 MOL     -0.028565
     88 C29        -2.2230   -0.2800    2.1140 c3        1 MOL      0.123688
     89 C30        -4.3660    1.0780    1.7030 c3        1 MOL     -0.302473
     90 C31        -2.7010   -1.6920    2.3610 c3        1 MOL     -0.378262
     91 H36        -1.6450    0.3840   -0.8670 hn        1 MOL      0.131214
     92 H37        -3.8430   -1.2820    0.0380 h1        1 MOL      0.178000
     93 H38        -2.5010    1.3900    0.9510 hc        1 MOL      0.043624
     94 H39        -2.1190    0.2410    3.0670 hc        1 MOL     -0.043497
     95 H40        -1.2430   -0.2640    1.6270 hc        1 MOL     -0.043497
     96 H41        -5.0480    0.2860    2.0450 hc        1 MOL      0.094355
     97 H42        -4.1050    1.8250    2.4510 hc        1 MOL      0.094355
     98 H43        -4.8730    1.7390    1.0020 hc        1 MOL      0.094355
     99 H44        -2.1790   -1.9510    3.2820 hc        1 MOL      0.106414
    100 H45        -3.7910   -1.6460    2.4680 hc        1 MOL      0.106414
    101 H46        -2.4060   -2.2860    1.4930 hc        1 MOL      0.106414
    102 N10        -5.4870   -0.1700   -1.5030 n         1 MOL     -0.313396
    103 C32        -6.1890   -1.2990   -0.8470 c3        1 MOL      0.031824
    104 C33        -7.7000   -1.0670   -0.9300 c         1 MOL      0.407881
    105 O16        -8.2230   -0.4230   -1.8500 o         1 MOL     -0.502366
    106 C34        -5.9460   -2.5850   -1.6130 c3        1 MOL     -0.322164
    107 C35        -6.1160   -3.9080   -0.8060 c         1 MOL      0.653570
    108 O17        -5.7140   -4.9610   -1.3030 o         1 MOL     -0.677612
    109 O18        -6.4190   -3.8040    0.4200 o         1 MOL     -0.677612
    110 H47        -6.0150    0.3250   -2.2100 hn        1 MOL      0.293777
    111 H48        -5.9550   -1.4590    0.2030 h1        1 MOL      0.049117
    112 H49        -4.9110   -2.5540   -1.9690 hc        1 MOL      0.087807
    113 H50        -6.5200   -2.6010   -2.5440 hc        1 MOL      0.087807
    114 N11        -8.4660   -1.7660   -0.0870 n         1 MOL     -0.423306
    115 C36        -9.9200   -1.4800    0.0650 c3        1 MOL      0.553833
    116 C37       -10.2820   -1.1190    1.5410 c         1 MOL      0.159268
    117 O19       -10.0120   -1.9680    2.3990 o         1 MOL     -0.468592
    118 C38       -10.7640   -2.5950   -0.6950 c3        1 MOL     -0.364564
    119 C39       -12.2220   -2.0660   -0.9170 ca        1 MOL      0.190083
    120 C40       -13.1300   -2.1560    0.1740 ca        1 MOL     -0.275914
    121 C41       -12.5740   -1.5440   -2.1890 ca        1 MOL     -0.275914
    122 C42       -14.4220   -1.6480   -0.0640 ca        1 MOL      0.008071
    123 C43       -13.9380   -1.1910   -2.3980 ca        1 MOL      0.008071
    124 C44       -14.8330   -1.1980   -1.3360 ca        1 MOL     -0.288259
    125 H51        -8.0680   -2.4640    0.5210 hn        1 MOL      0.251854
    126 H52       -10.1760   -0.5560   -0.4560 h1        1 MOL     -0.085050
    127 H53       -10.7430   -3.5020   -0.0980 hc        1 MOL      0.117839
    128 H54       -10.4590   -2.7350   -1.7360 hc        1 MOL      0.117839
    129 H55       -12.8360   -2.5370    1.1430 ha        1 MOL      0.170258
    130 H56       -11.8380   -1.4420   -2.9780 ha        1 MOL      0.170258
    131 H57       -15.1210   -1.8050    0.7430 ha        1 MOL      0.083359
    132 H58       -14.1920   -0.8430   -3.3910 ha        1 MOL      0.083359
    133 H59       -15.8190   -0.7800   -1.4850 ha        1 MOL      0.133244
    134 N12       -10.8830    0.1380    1.8140 n         1 MOL     -0.104974
    135 C45       -11.5200    1.0170    0.8530 c3        1 MOL     -0.116367
    136 C46       -10.6470    2.1610    0.4050 c         1 MOL      0.614204
    137 O20       -11.0790    2.7710   -0.5370 o         1 MOL     -0.559280
    138 C47       -12.8560    1.4720    1.5300 c3        1 MOL      0.016507
    139 C48       -12.4660    1.4390    3.0090 c3        1 MOL     -0.142826
    140 C49       -11.4810    0.3110    3.1160 c3        1 MOL      0.106708
    141 H60       -11.8360    0.5090   -0.0640 h1        1 MOL      0.147720
    142 H61       -13.2130    2.4530    1.2320 hc        1 MOL      0.016498
    143 H62       -13.6220    0.6980    1.4280 hc        1 MOL      0.016498
    144 H63       -11.8940    2.3480    3.2080 hc        1 MOL      0.034396
    145 H64       -13.2260    1.2020    3.7430 hc        1 MOL      0.034396
    146 H65       -10.8210    0.4960    3.9710 h1        1 MOL      0.021726
    147 H66       -12.0280   -0.5690    3.4830 h1        1 MOL      0.021726
    148 N13        -9.5230    2.4020    1.1040 n         1 MOL     -0.454878
    149 C50        -8.6080    3.4710    0.6960 c3        1 MOL      0.257648
    150 C51        -7.9450    4.0640    1.8760 c         1 MOL      0.352598
    151 O21        -7.7590    3.4670    2.9640 o         1 MOL     -0.581662
    152 C52        -7.5170    2.9720   -0.3200 c3        1 MOL      0.059868
    153 C53        -7.9490    2.8950   -1.7840 c3        1 MOL     -0.091662
    154 C54        -7.8950    4.2660   -2.4780 c         1 MOL      0.661859
    155 O22        -8.6840    5.2130   -2.1180 o         1 MOL     -0.715860
    156 O23        -6.9690    4.4030   -3.3050 o         1 MOL     -0.715860
    157 H67        -9.2670    1.7560    1.8430 hn        1 MOL      0.233849
    158 H68        -9.1650    4.2500    0.1660 h1        1 MOL      0.027893
    159 H69        -7.2610    2.0000    0.0830 hc        1 MOL      0.011284
    160 H70        -6.5700    3.5150   -0.2730 hc        1 MOL      0.011284
    161 H71        -8.9550    2.4970   -1.9260 hc        1 MOL     -0.003446
    162 H72        -7.2070    2.1950   -2.1590 hc        1 MOL     -0.003446
    163 N14        -7.3760    5.2730    1.8410 n         1 MOL     -0.389598
    164 C55        -6.9820    6.1770    0.7600 c3        1 MOL     -0.085641
    165 H73        -7.8360    6.3560    0.1080 h1        1 MOL      0.069365
    166 H74        -6.6420    7.1220    1.1830 h1        1 MOL      0.069365
    167 H75        -6.1750    5.7250    0.1840 h1        1 MOL      0.069365
    168 H76        -6.9330    5.4190    2.7290 hn        1 MOL      0.272766
    169 Ca1         6.9550    2.0190    0.8430 Ca        1 MOL      1.787292
    170 O24         5.7610   -0.2290   -0.1280 oh        1 MOL     -0.858021
    171 H77         6.3160   -1.0040   -0.1230 ho        1 MOL      0.418934
    172 H78         4.9240   -0.5300    0.2380 ho        1 MOL      0.418934
    173 O25         6.0650    4.4260    1.7800 oh        1 MOL     -0.858021
    174 H79         5.1770    4.7420    1.9150 ho        1 MOL      0.418934
    175 H80         6.6230    5.0930    2.1720 ho        1 MOL      0.418934
    176 O26         4.8690    2.8070   -0.6050 oh        1 MOL     -0.858021
    177 H81         4.4870    2.5480   -1.4390 ho        1 MOL      0.418934
    178 H82         4.3520    3.5600   -0.3180 ho        1 MOL      0.418934
    179 O27         7.1330    2.0870    3.5700 oh        1 MOL     -0.858021
    180 H83         6.2840    1.9940    4.0110 ho        1 MOL      0.418934
    181 H84         7.7810    2.0100    4.2640 ho        1 MOL      0.418934
    182 O28         4.5530    1.8300    2.5170 oh        1 MOL     -0.858021
    183 H85         3.8230    2.2610    2.0670 ho        1 MOL      0.418934
    184 H86         4.1390    1.2310    3.1310 ho        1 MOL      0.418934
    185 O29         9.1980    3.3350    2.2240 oh        1 MOL     -0.858021
    186 H87         9.8460    3.9960    1.9550 ho        1 MOL      0.418934
    187 H88         9.1530    3.4120    3.1760 ho        1 MOL      0.418934
@<TRIPOS>BOND
     1    1    2 1   
     2    1    4 1   
     3    1    5 1   
     4    1    6 1   
     5    2    3 2   
     6    2    7 1   
     7    7    8 1   
     8    7   15 1   
     9    8    9 1   
    10    8   11 1   
    11    8   16 1   
    12    9   10 2   
    13    9   19 1   
    14   11   12 1   
    15   11   17 1   
    16   11   18 1   
    17   12   13 1   
    18   12   14 1   
    19   19   20 1   
    20   19   24 1   
    21   20   21 1   
    22   20   23 1   
    23   20   25 1   
    24   21   22 2   
    25   21   29 1   
    26   23   26 1   
    27   23   27 1   
    28   23   28 1   
    29   29   30 1   
    30   29   37 1   
    31   30   31 1   
    32   30   33 1   
    33   30   38 1   
    34   31   32 2   
    35   31   41 1   
    36   33   34 1   
    37   33   39 1   
    38   33   40 1   
    39   34   35 1   
    40   34   36 1   
    41   41   42 1   
    42   41   45 1   
    43   42   43 1   
    44   42   46 1   
    45   42   47 1   
    46   43   44 2   
    47   43   48 1   
    48   48   49 1   
    49   48   56 1   
    50   49   50 1   
    51   49   52 1   
    52   49   57 1   
    53   50   51 2   
    54   50   62 1   
    55   52   53 1   
    56   52   58 1   
    57   52   59 1   
    58   53   54 1   
    59   53   55 2   
    60   54   60 1   
    61   54   61 1   
    62   62   63 1   
    63   62   66 1   
    64   63   64 1   
    65   63   67 1   
    66   63   68 1   
    67   64   65 2   
    68   64   69 1   
    69   69   70 1   
    70   69   76 1   
    71   70   71 1   
    72   70   73 1   
    73   70   77 1   
    74   71   72 2   
    75   71   83 1   
    76   73   74 1   
    77   73   75 1   
    78   73   78 1   
    79   74   80 1   
    80   74   81 1   
    81   74   82 1   
    82   75   79 1   
    83   83   84 1   
    84   83   91 1   
    85   84   85 1   
    86   84   87 1   
    87   84   92 1   
    88   85   86 2   
    89   85  102 1   
    90   87   88 1   
    91   87   89 1   
    92   87   93 1   
    93   88   90 1   
    94   88   94 1   
    95   88   95 1   
    96   89   96 1   
    97   89   97 1   
    98   89   98 1   
    99   90   99 1   
   100   90  100 1   
   101   90  101 1   
   102  102  103 1   
   103  102  110 1   
   104  103  104 1   
   105  103  106 1   
   106  103  111 1   
   107  104  105 2   
   108  104  114 1   
   109  106  107 1   
   110  106  112 1   
   111  106  113 1   
   112  107  108 1   
   113  107  109 1   
   114  114  115 1   
   115  114  125 1   
   116  115  116 1   
   117  115  118 1   
   118  115  126 1   
   119  116  117 2   
   120  116  134 1   
   121  118  119 1   
   122  118  127 1   
   123  118  128 1   
   124  119  120 ar  
   125  119  121 ar  
   126  120  122 ar  
   127  120  129 1   
   128  121  123 ar  
   129  121  130 1   
   130  122  124 ar  
   131  122  131 1   
   132  123  124 ar  
   133  123  132 1   
   134  124  133 1   
   135  134  135 1   
   136  134  140 1   
   137  135  136 1   
   138  135  138 1   
   139  135  141 1   
   140  136  137 2   
   141  136  148 1   
   142  138  139 1   
   143  138  142 1   
   144  138  143 1   
   145  139  140 1   
   146  139  144 1   
   147  139  145 1   
   148  140  146 1   
   149  140  147 1   
   150  148  149 1   
   151  148  157 1   
   152  149  150 1   
   153  149  152 1   
   154  149  158 1   
   155  150  151 2   
   156  150  163 1   
   157  152  153 1   
   158  152  159 1   
   159  152  160 1   
   160  153  154 1   
   161  153  161 1   
   162  153  162 1   
   163  154  155 1   
   164  154  156 1   
   165  163  164 1   
   166  163  168 1   
   167  164  165 1   
   168  164  166 1   
   169  164  167 1   
   170  170  171 1   
   171  170  172 1   
   172  173  174 1   
   173  173  175 1   
   174  176  177 1   
   175  176  178 1   
   176  179  180 1   
   177  179  181 1   
   178  182  183 1   
   179  182  184 1   
   180  185  186 1   
   181  185  187 1   
@<TRIPOS>SUBSTRUCTURE
     1 MOL         1 TEMP              0 ****  ****    0 ROOT
