@<TRIPOS>MOLECULE
MOL
  179   176     1     0     0
SMALL
resp


@<TRIPOS>ATOM
      1 C1          3.3680    0.3910    5.9640 c3        1 MOL     -0.414664
      2 C2          3.1130    0.7400    4.4490 c         1 MOL      0.766756
      3 O1          3.9590    0.4520    3.6190 o         1 MOL     -0.589471
      4 H1          2.8250   -0.5180    6.2240 hc        1 MOL      0.112805
      5 H2          4.4350    0.2350    6.1260 hc        1 MOL      0.112805
      6 H3          3.0210    1.2130    6.5900 hc        1 MOL      0.112805
      7 N1          1.9300    1.3300    4.1550 n         1 MOL     -0.662875
      8 C3          1.4210    1.4730    2.7480 c3        1 MOL     -0.123678
      9 C4          2.1940    2.5730    1.9550 c         1 MOL      0.566612
     10 O2          2.0490    3.8010    2.0830 o         1 MOL     -0.538705
     11 C5         -0.0560    1.8540    2.8290 c3        1 MOL      0.558180
     12 C6         -0.7080    1.9770    1.4640 c         1 MOL      0.338713
     13 O3         -1.9340    1.9220    1.3670 o         1 MOL     -0.740359
     14 O4         -0.0630    1.7290    0.4190 o         1 MOL     -0.740359
     15 H4          1.2640    1.4880    4.9010 hn        1 MOL      0.315503
     16 H5          1.4970    0.5160    2.2520 h1        1 MOL      0.053824
     17 H6         -0.1690    2.7980    3.3620 hc        1 MOL     -0.092867
     18 H7         -0.6120    1.1300    3.4240 hc        1 MOL     -0.092867
     19 N2          2.9860    2.1350    0.9680 n         1 MOL     -0.254276
     20 C7          3.7860    3.1080    0.1490 c3        1 MOL     -0.227975
     21 C8          3.0160    4.0320   -0.7560 c         1 MOL      0.561530
     22 O5          3.4080    5.1820   -0.9630 o         1 MOL     -0.553687
     23 C9          4.7900    2.3720   -0.7490 c3        1 MOL      0.076215
     24 C10         5.6980    3.2030   -1.6210 c3        1 MOL     -0.188828
     25 C11         6.5690    4.2750   -0.8750 c3        1 MOL      0.110116
     26 C12         7.2500    3.7230    0.3120 c3        1 MOL      0.085450
     27 N3          8.5250    4.4600    0.6880 n4        1 MOL     -0.343115
     28 H8          3.1530    1.1520    0.8250 hn        1 MOL      0.259197
     29 H9          4.2900    3.7530    0.8650 h1        1 MOL      0.131257
     30 H10         4.0780    1.7780   -1.3200 hc        1 MOL      0.023354
     31 H11         5.4390    1.7590   -0.1310 hc        1 MOL      0.023354
     32 H12         5.0470    3.6320   -2.3820 hc        1 MOL      0.070913
     33 H13         6.3250    2.4570   -2.1140 hc        1 MOL      0.070913
     34 H14         6.0280    5.1690   -0.5750 hc        1 MOL     -0.007117
     35 H15         7.3320    4.6520   -1.5590 hc        1 MOL     -0.007117
     36 H16         7.5410    2.7030    0.0700 hx        1 MOL      0.072365
     37 H17         6.5650    3.7750    1.1620 hx        1 MOL      0.072365
     38 H18         8.2990    5.4190    0.8890 hn        1 MOL      0.305629
     39 H19         8.9920    4.1250    1.5250 hn        1 MOL      0.305629
     40 H20         9.1990    4.4490   -0.0620 hn        1 MOL      0.305629
     41 N4          1.8420    3.5780   -1.2010 n         1 MOL     -0.250295
     42 C13         0.9580    4.3480   -2.0980 c3        1 MOL     -0.054865
     43 C14        -0.1700    5.1600   -1.2530 c         1 MOL      0.334137
     44 O6         -0.9530    6.0020   -1.6790 o         1 MOL     -0.517357
     45 C15         0.4040    3.5500   -3.3240 c3        1 MOL     -0.214962
     46 C16        -0.3060    2.2260   -2.9360 c         1 MOL      0.787058
     47 O7         -1.4960    2.3240   -2.5410 o         1 MOL     -0.789544
     48 O8          0.1880    1.0600   -2.9570 o         1 MOL     -0.789544
     49 H21         1.5620    2.7000   -0.7930 hn        1 MOL      0.198167
     50 H22         1.5810    5.1420   -2.5230 h1        1 MOL      0.111070
     51 H23         1.2310    3.3510   -4.0040 hc        1 MOL      0.073472
     52 H24        -0.3140    4.1200   -3.9230 hc        1 MOL      0.073472
     53 N5         -0.2170    4.7510   -0.0110 n         1 MOL      0.094611
     54 C17        -1.0780    5.2240    1.0020 c3        1 MOL     -0.364464
     55 C18        -2.5690    4.8130    0.9630 c         1 MOL      0.654810
     56 O9         -3.1910    4.8750    2.0120 o         1 MOL     -0.560715
     57 H25         0.4790    4.0610    0.2490 hn        1 MOL      0.053884
     58 H26        -1.1070    6.3110    0.9770 h1        1 MOL      0.142432
     59 H27        -0.6440    4.8620    1.9320 h1        1 MOL      0.142432
     60 N6         -3.2050    4.3930   -0.1850 n         1 MOL     -0.287380
     61 C19        -4.6350    4.0990   -0.3170 c3        1 MOL      0.377235
     62 C20        -4.9040    2.5890   -0.5000 c         1 MOL      0.433794
     63 O10        -3.9870    1.8170   -0.5350 o         1 MOL     -0.408538
     64 C21        -5.1990    4.9540   -1.4340 c3        1 MOL     -0.510901
     65 C22        -4.9550    6.3970   -1.2170 c         1 MOL      0.717162
     66 N7         -4.2480    6.9680   -2.1460 n         1 MOL     -0.810730
     67 O11        -5.1480    6.9360   -0.1780 o         1 MOL     -0.547802
     68 H28        -2.6870    4.3100   -1.0440 hn        1 MOL      0.231386
     69 H29        -5.1630    4.3240    0.6130 h1        1 MOL     -0.023687
     70 H30        -6.2610    4.6950   -1.4860 hc        1 MOL      0.093268
     71 H31        -4.6100    4.6340   -2.3010 hc        1 MOL      0.093268
     72 H32        -4.2310    6.5600   -3.0720 hn        1 MOL      0.372175
     73 H33        -3.8950    7.9110   -2.0510 hn        1 MOL      0.372175
     74 N8         -6.1640    2.2580   -0.6820 n         1 MOL     -0.423396
     75 C23        -6.5660    0.9400   -1.1210 c3        1 MOL     -0.062909
     76 C24        -6.3930   -0.1190   -0.0620 c         1 MOL      0.569474
     77 O12        -6.4900    0.0840    1.1290 o         1 MOL     -0.503102
     78 H34        -6.7770    3.0550   -0.6380 hn        1 MOL      0.320836
     79 H35        -5.9550    0.5790   -1.9590 h1        1 MOL      0.054579
     80 H36        -7.6250    1.0290   -1.3360 h1        1 MOL      0.054579
     81 N9         -5.9240   -1.2880   -0.5250 n         1 MOL     -0.490238
     82 C25        -5.4850   -2.3080    0.4380 c3        1 MOL      0.150355
     83 C26        -4.0510   -1.9580    0.9560 c         1 MOL      0.189192
     84 O13        -3.5380   -0.8690    0.6160 o         1 MOL     -0.242584
     85 C27        -5.4510   -3.7270   -0.3870 c3        1 MOL     -0.071189
     86 C28        -6.7480   -4.1640   -1.0240 ca        1 MOL      0.078185
     87 C29        -7.8370   -4.5330   -0.1870 ca        1 MOL     -0.217737
     88 C30        -6.7610   -4.4080   -2.4340 ca        1 MOL     -0.217737
     89 C31        -8.9520   -5.2040   -0.7890 ca        1 MOL     -0.179555
     90 C32        -7.8650   -5.0280   -2.9560 ca        1 MOL     -0.179555
     91 C33        -8.9680   -5.4160   -2.1880 ca        1 MOL      0.274598
     92 O14       -10.0170   -6.0420   -2.7670 oh        1 MOL     -0.472061
     93 H37        -5.9280   -1.4750   -1.5210 hn        1 MOL      0.241461
     94 H38        -6.1830   -2.4130    1.2720 h1        1 MOL      0.093725
     95 H39        -5.0220   -4.5530    0.1810 hc        1 MOL      0.029214
     96 H40        -4.7170   -3.6440   -1.1930 hc        1 MOL      0.029214
     97 H41        -7.8210   -4.4540    0.8900 ha        1 MOL      0.151890
     98 H42        -5.9680   -4.1260   -3.1030 ha        1 MOL      0.151890
     99 H43        -9.7650   -5.5880   -0.1920 ha        1 MOL      0.135904
    100 H44        -7.8710   -5.3140   -4.0100 ha        1 MOL      0.135904
    101 H45       -10.0490   -6.1240   -3.7160 ho        1 MOL      0.370760
    102 N10        -3.4640   -2.7870    1.8080 n         1 MOL     -0.534408
    103 C34        -2.4940   -2.4150    2.8140 c3        1 MOL      0.149214
    104 C35        -1.1250   -2.1900    2.2090 c         1 MOL      0.465226
    105 O15        -0.9020   -1.4100    1.2360 o         1 MOL     -0.542996
    106 C36        -2.9390   -1.3200    3.7120 c3        1 MOL      0.129349
    107 C37        -2.0390   -1.1720    4.9740 c3        1 MOL     -0.283965
    108 C38        -4.3660   -1.5200    4.2120 c3        1 MOL     -0.168536
    109 C39        -2.0980   -2.3060    6.0720 c3        1 MOL     -0.154625
    110 H46        -3.9600   -3.6530    1.9410 hn        1 MOL      0.308699
    111 H47        -2.4130   -3.2980    3.4400 h1        1 MOL      0.053543
    112 H48        -3.1180   -0.3170    3.3060 hc        1 MOL      0.086064
    113 H49        -2.2790   -0.2590    5.5180 hc        1 MOL      0.118488
    114 H50        -0.9820   -1.0960    4.7250 hc        1 MOL      0.118488
    115 H51        -5.1150   -1.2170    3.4770 hc        1 MOL      0.055736
    116 H52        -4.5500   -2.5780    4.3880 hc        1 MOL      0.055736
    117 H53        -4.5790   -0.9800    5.1330 hc        1 MOL      0.055736
    118 H54        -1.5550   -1.9970    6.9600 hc        1 MOL      0.043522
    119 H55        -3.1660   -2.4610    6.2710 hc        1 MOL      0.043522
    120 H56        -1.5950   -3.1890    5.6830 hc        1 MOL      0.043522
    121 N11        -0.1290   -2.8020    2.8520 n         1 MOL     -0.477371
    122 C40         1.3170   -2.4990    2.8640 c3        1 MOL      0.056405
    123 C41         2.0690   -2.4950    1.4990 c         1 MOL      0.402906
    124 O16         3.2690   -2.2960    1.4900 o         1 MOL     -0.506806
    125 C42         2.0140   -3.4300    3.8930 c3        1 MOL      0.041454
    126 O17         1.3710   -3.3750    5.1450 oh        1 MOL     -0.575545
    127 H57        -0.4260   -3.5220    3.4970 hn        1 MOL      0.263302
    128 H58         1.5780   -1.5370    3.3090 h1        1 MOL      0.197388
    129 H59         3.0460   -3.0820    3.9650 h1        1 MOL      0.089490
    130 H60         2.0360   -4.4640    3.5500 h1        1 MOL      0.089490
    131 H61         0.9740   -4.2540    5.1930 ho        1 MOL      0.399180
    132 N12         1.4690   -2.9800    0.4360 n         1 MOL     -0.359538
    133 C43         2.0330   -2.9170   -0.9470 c3        1 MOL      0.174092
    134 C44         1.6070   -1.6220   -1.7270 c         1 MOL      0.514896
    135 O18         0.4860   -1.1760   -1.5260 o         1 MOL     -0.507186
    136 C45         1.6580   -4.2200   -1.6810 c3        1 MOL     -0.271404
    137 H62         0.4810   -3.1980    0.4830 hn        1 MOL      0.213866
    138 H63         3.1160   -2.8930   -0.7990 h1        1 MOL      0.089786
    139 H64         2.2160   -4.2130   -2.6110 hc        1 MOL      0.064462
    140 H65         1.9750   -5.0410   -1.0370 hc        1 MOL      0.064462
    141 H66         0.5880   -4.2510   -1.9060 hc        1 MOL      0.064462
    142 N13         2.4220   -0.9560   -2.5920 n         1 MOL     -0.515264
    143 C46         3.8610   -1.1850   -2.6320 c3        1 MOL      0.086711
    144 C47         4.0790   -2.5190   -3.3560 c         1 MOL      0.678854
    145 O19         3.5880   -2.6430   -4.4910 o         1 MOL     -0.598202
    146 C48         4.4190   -0.0230   -3.4790 c3        1 MOL     -0.407945
    147 H67         2.0520   -0.1160   -3.0080 hn        1 MOL      0.370449
    148 H68         4.3010   -1.1050   -1.6310 h1        1 MOL      0.064947
    149 H69         3.9680    0.8860   -3.0660 hc        1 MOL      0.125101
    150 H70         5.4940   -0.1230   -3.3650 hc        1 MOL      0.125101
    151 H71         3.9950   -0.1350   -4.4730 hc        1 MOL      0.125101
    152 N14         4.8050   -3.4040   -2.7810 n         1 MOL     -0.526011
    153 C49         5.5980   -3.4420   -1.4920 c3        1 MOL      0.012237
    154 C50         5.7510   -4.8400   -0.9510 c         1 MOL      0.578936
    155 O20         5.5950   -5.0800    0.2190 o         1 MOL     -0.509697
    156 C51         6.9540   -2.7010   -1.7620 c3        1 MOL      0.010891
    157 C52         7.7050   -2.7320   -0.4860 c3        1 MOL     -0.353579
    158 C53         9.0660   -2.0040   -0.7000 c         1 MOL      0.755777
    159 O21         9.9730   -2.4870   -1.4530 o         1 MOL     -0.721292
    160 O22         9.2730   -0.9940   -0.0550 o         1 MOL     -0.721292
    161 H72         4.9820   -4.1940   -3.4010 hn        1 MOL      0.226305
    162 H73         4.9920   -3.0380   -0.6820 h1        1 MOL      0.070894
    163 H74         6.7750   -1.6730   -2.0930 hc        1 MOL      0.014292
    164 H75         7.4670   -3.3010   -2.5180 hc        1 MOL      0.014292
    165 H76         7.8440   -3.7850   -0.2500 hc        1 MOL      0.089815
    166 H77         7.1530   -2.3300    0.3620 hc        1 MOL      0.089815
    167 N15         6.0900   -5.7630   -1.8660 n         1 MOL     -0.368465
    168 C54         6.2210   -7.1990   -1.5620 c3        1 MOL     -0.290609
    169 H78         5.2300   -7.6500   -1.5080 h1        1 MOL      0.127530
    170 H79         6.7990   -7.6850   -2.3470 h1        1 MOL      0.127530
    171 H80         6.7290   -7.3230   -0.6050 h1        1 MOL      0.127530
    172 H81         6.2290   -5.5000   -2.8340 hn        1 MOL      0.325033
    173 Ca1        -1.8090    0.3040   -0.8960 Ca        1 MOL      1.722368
    174 O23        -2.1870   -2.2830   -1.6120 oh        1 MOL     -0.786709
    175 H82        -2.0540   -2.8240   -0.8350 ho        1 MOL      0.403821
    176 H83        -1.7600   -2.7580   -2.3210 ho        1 MOL      0.403821
    177 O24        -3.8670   -0.1240   -2.8300 oh        1 MOL     -0.786709
    178 H84        -4.4310    0.4710   -3.3170 ho        1 MOL      0.403821
    179 H85        -3.9760   -0.9710   -3.2530 ho        1 MOL      0.403821
@<TRIPOS>BOND
     1    1    2 1   
     2    1    4 1   
     3    1    5 1   
     4    1    6 1   
     5    2    3 2   
     6    2    7 1   
     7    7    8 1   
     8    7   15 1   
     9    8    9 1   
    10    8   11 1   
    11    8   16 1   
    12    9   10 2   
    13    9   19 1   
    14   11   12 1   
    15   11   17 1   
    16   11   18 1   
    17   12   13 1   
    18   12   14 1   
    19   19   20 1   
    20   19   28 1   
    21   20   21 1   
    22   20   23 1   
    23   20   29 1   
    24   21   22 2   
    25   21   41 1   
    26   23   24 1   
    27   23   30 1   
    28   23   31 1   
    29   24   25 1   
    30   24   32 1   
    31   24   33 1   
    32   25   26 1   
    33   25   34 1   
    34   25   35 1   
    35   26   27 1   
    36   26   36 1   
    37   26   37 1   
    38   27   38 1   
    39   27   39 1   
    40   27   40 1   
    41   41   42 1   
    42   41   49 1   
    43   42   43 1   
    44   42   45 1   
    45   42   50 1   
    46   43   44 2   
    47   43   53 1   
    48   45   46 1   
    49   45   51 1   
    50   45   52 1   
    51   46   47 1   
    52   46   48 1   
    53   53   54 1   
    54   53   57 1   
    55   54   55 1   
    56   54   58 1   
    57   54   59 1   
    58   55   56 2   
    59   55   60 1   
    60   60   61 1   
    61   60   68 1   
    62   61   62 1   
    63   61   64 1   
    64   61   69 1   
    65   62   63 2   
    66   62   74 1   
    67   64   65 1   
    68   64   70 1   
    69   64   71 1   
    70   65   66 1   
    71   65   67 2   
    72   66   72 1   
    73   66   73 1   
    74   74   75 1   
    75   74   78 1   
    76   75   76 1   
    77   75   79 1   
    78   75   80 1   
    79   76   77 2   
    80   76   81 1   
    81   81   82 1   
    82   81   93 1   
    83   82   83 1   
    84   82   85 1   
    85   82   94 1   
    86   83   84 2   
    87   83  102 1   
    88   85   86 1   
    89   85   95 1   
    90   85   96 1   
    91   86   87 ar  
    92   86   88 ar  
    93   87   89 ar  
    94   87   97 1   
    95   88   90 ar  
    96   88   98 1   
    97   89   91 ar  
    98   89   99 1   
    99   90   91 ar  
   100   90  100 1   
   101   91   92 1   
   102   92  101 1   
   103  102  103 1   
   104  102  110 1   
   105  103  104 1   
   106  103  106 1   
   107  103  111 1   
   108  104  105 2   
   109  104  121 1   
   110  106  107 1   
   111  106  108 1   
   112  106  112 1   
   113  107  109 1   
   114  107  113 1   
   115  107  114 1   
   116  108  115 1   
   117  108  116 1   
   118  108  117 1   
   119  109  118 1   
   120  109  119 1   
   121  109  120 1   
   122  121  122 1   
   123  121  127 1   
   124  122  123 1   
   125  122  125 1   
   126  122  128 1   
   127  123  124 2   
   128  123  132 1   
   129  125  126 1   
   130  125  129 1   
   131  125  130 1   
   132  126  131 1   
   133  132  133 1   
   134  132  137 1   
   135  133  134 1   
   136  133  136 1   
   137  133  138 1   
   138  134  135 2   
   139  134  142 1   
   140  136  139 1   
   141  136  140 1   
   142  136  141 1   
   143  142  143 1   
   144  142  147 1   
   145  143  144 1   
   146  143  146 1   
   147  143  148 1   
   148  144  145 2   
   149  144  152 1   
   150  146  149 1   
   151  146  150 1   
   152  146  151 1   
   153  152  153 1   
   154  152  161 1   
   155  153  154 1   
   156  153  156 1   
   157  153  162 1   
   158  154  155 2   
   159  154  167 1   
   160  156  157 1   
   161  156  163 1   
   162  156  164 1   
   163  157  158 1   
   164  157  165 1   
   165  157  166 1   
   166  158  159 1   
   167  158  160 1   
   168  167  168 1   
   169  167  172 1   
   170  168  169 1   
   171  168  170 1   
   172  168  171 1   
   173  174  175 1   
   174  174  176 1   
   175  177  178 1   
   176  177  179 1   
@<TRIPOS>SUBSTRUCTURE
     1 MOL         1 TEMP              0 ****  ****    0 ROOT
