@<TRIPOS>MOLECULE
MOL
  181   177     1     0     0
SMALL
resp


@<TRIPOS>ATOM
      1 C1          1.4480    6.1800   -1.3560 c3        1 MOL     -0.382030
      2 C2          2.8840    6.3000   -0.7360 c         1 MOL      0.655424
      3 O1          3.0500    6.8420    0.3630 o         1 MOL     -0.566502
      4 H1          0.7040    6.2600   -0.5650 hc        1 MOL      0.098675
      5 H2          1.2960    6.9820   -2.0800 hc        1 MOL      0.098675
      6 H3          1.3470    5.2160   -1.8560 hc        1 MOL      0.098675
      7 N1          3.9410    5.8480   -1.4700 n         1 MOL     -0.481977
      8 C3          5.2870    6.0700   -0.9880 c3        1 MOL      0.071760
      9 C4          5.7430    5.0300    0.0620 c         1 MOL      0.449656
     10 O2          6.6260    4.1980   -0.2440 o         1 MOL     -0.424811
     11 C5          6.2010    6.0620   -2.3130 c3        1 MOL     -0.153249
     12 C6          7.6410    6.3280   -2.0300 c         1 MOL      0.751315
     13 O3          7.9120    7.4410   -1.5140 o         1 MOL     -0.748900
     14 O4          8.4510    5.4640   -2.3510 o         1 MOL     -0.748900
     15 H4          3.8970    5.4740   -2.4060 hn        1 MOL      0.285398
     16 H5          5.4300    7.0870   -0.6140 h1        1 MOL      0.048923
     17 H6          5.8740    6.7790   -3.0750 hc        1 MOL      0.009337
     18 H7          6.1450    5.1130   -2.8380 hc        1 MOL      0.009337
     19 N2          4.9840    4.8370    1.1670 n         1 MOL     -0.506786
     20 C7          5.1280    3.7910    2.1490 c3        1 MOL      0.404633
     21 C8          3.8140    3.0250    2.3950 c         1 MOL      0.397266
     22 O5          2.6920    3.4090    2.1560 o         1 MOL     -0.550263
     23 C9          5.5360    4.5370    3.3920 c3        1 MOL     -0.213254
     24 H8          4.1820    5.4400    1.2710 hn        1 MOL      0.266073
     25 H9          5.9550    3.1380    1.8740 h1        1 MOL     -0.033417
     26 H10         5.8760    3.8900    4.1980 hc        1 MOL      0.046419
     27 H11         6.3740    5.2140    3.2300 hc        1 MOL      0.046419
     28 H12         4.7700    5.2180    3.7720 hc        1 MOL      0.046419
     29 N3          3.9000    1.7920    2.8440 n         1 MOL     -0.359286
     30 C10         5.1430    1.0380    3.1000 c3        1 MOL     -0.097259
     31 C11         5.5870    0.2190    1.8450 c         1 MOL      0.548106
     32 O6          4.9880    0.3520    0.7860 o         1 MOL     -0.413250
     33 C12         4.7230   -0.0520    4.1880 c3        1 MOL     -0.459907
     34 C13         3.4030   -0.7850    3.9750 c         1 MOL      0.780450
     35 O7          3.1940   -1.7960    4.6910 o         1 MOL     -0.696782
     36 O8          2.4980   -0.4970    3.1640 o         1 MOL     -0.696782
     37 H13         3.0210    1.2930    2.8700 hn        1 MOL      0.303334
     38 H14         5.9260    1.6260    3.5930 h1        1 MOL      0.148071
     39 H15         4.4910    0.4080    5.1400 hc        1 MOL      0.135357
     40 H16         5.5270   -0.7680    4.3670 hc        1 MOL      0.135357
     41 N4          6.7500   -0.4580    1.8250 n         1 MOL     -0.487981
     42 C14         7.1830   -1.4940    0.8800 c3        1 MOL      0.059985
     43 C15         8.3520   -1.0850   -0.0100 c         1 MOL      0.629883
     44 O9          9.1300   -0.1800    0.2510 o         1 MOL     -0.513693
     45 H17         7.2030   -0.4520    2.7290 hn        1 MOL      0.286663
     46 H18         6.3240   -1.7710    0.2710 h1        1 MOL      0.044638
     47 H19         7.4150   -2.4230    1.4010 h1        1 MOL      0.044638
     48 N5          8.6360   -1.8690   -1.0660 n         1 MOL     -0.631026
     49 C16         7.7730   -2.8870   -1.6880 c3        1 MOL      0.176395
     50 C17         6.5940   -2.2930   -2.3650 c         1 MOL      0.529483
     51 O10         6.5370   -1.1520   -2.9090 o         1 MOL     -0.460783
     52 C18         8.6270   -3.6490   -2.6990 c3        1 MOL     -0.406521
     53 C19         9.8060   -4.3850   -2.1180 c         1 MOL      0.703383
     54 N6          9.6310   -5.4000   -1.2190 n         1 MOL     -0.842932
     55 O11        10.9570   -4.0030   -2.3630 o         1 MOL     -0.551292
     56 H20         9.5510   -1.7090   -1.4710 hn        1 MOL      0.369421
     57 H21         7.5330   -3.5820   -0.8780 h1        1 MOL     -0.000913
     58 H22         9.0620   -2.9270   -3.3920 hc        1 MOL      0.134143
     59 H23         8.0560   -4.4600   -3.1510 hc        1 MOL      0.134143
     60 H24         8.7100   -5.5550   -0.8440 hn        1 MOL      0.383863
     61 H25        10.5090   -5.7260   -0.8440 hn        1 MOL      0.383863
     62 N7          5.4440   -2.9670   -2.1670 n         1 MOL     -0.483537
     63 C20         4.1250   -2.3840   -2.3270 c3        1 MOL     -0.063785
     64 C21         3.1040   -3.5620   -2.3710 c         1 MOL      0.535916
     65 O12         3.2630   -4.5150   -3.1350 o         1 MOL     -0.561240
     66 H26         5.5130   -3.9260   -1.8620 hn        1 MOL      0.288916
     67 H27         3.9790   -1.7220   -3.1880 h1        1 MOL      0.095906
     68 H28         3.8880   -1.7380   -1.4840 h1        1 MOL      0.095906
     69 N8          2.1840   -3.4870   -1.4930 n         1 MOL     -0.278355
     70 C22         1.0940   -4.4000   -1.4110 c3        1 MOL     -0.183774
     71 C23        -0.1880   -3.6910   -0.9940 c         1 MOL      0.558273
     72 O13        -0.1010   -2.7690   -0.1500 o         1 MOL     -0.632711
     73 C24         1.2040   -5.5530   -0.3660 c3        1 MOL      0.675246
     74 C25         2.0740   -6.6640   -0.9060 c3        1 MOL     -0.567649
     75 O14         1.8120   -5.0190    0.8150 oh        1 MOL     -0.653073
     76 H29         2.2680   -2.8440   -0.7150 hn        1 MOL      0.207844
     77 H30         0.8930   -4.8800   -2.3720 h1        1 MOL      0.081851
     78 H31         0.1930   -5.9370   -0.2460 h1        1 MOL     -0.062793
     79 H32         1.1140   -4.8490    1.4500 ho        1 MOL      0.356290
     80 H33         3.0590   -6.2420   -0.7000 hc        1 MOL      0.135151
     81 H34         1.8360   -7.6000   -0.3820 hc        1 MOL      0.135151
     82 H35         1.9240   -6.7650   -1.9730 hc        1 MOL      0.135151
     83 N9         -1.3690   -4.0880   -1.5100 n         1 MOL     -0.316600
     84 C26        -2.6080   -3.2370   -1.3850 c3        1 MOL     -0.077797
     85 C27        -3.4270   -3.6330   -0.1640 c         1 MOL      0.361836
     86 O15        -3.6060   -4.8310    0.1810 o         1 MOL     -0.524858
     87 C28        -3.5600   -3.3750   -2.5200 c3        1 MOL      0.191148
     88 C29        -4.9280   -2.7040   -2.3110 c3        1 MOL     -0.010920
     89 C30        -2.8240   -2.6300   -3.6720 c3        1 MOL     -0.298610
     90 C31        -5.7900   -2.4100   -3.5600 c3        1 MOL     -0.060260
     91 H36        -1.3650   -4.9030   -2.1170 hn        1 MOL      0.251682
     92 H37        -2.3440   -2.1940   -1.1790 h1        1 MOL      0.133696
     93 H38        -3.7130   -4.4320   -2.7340 hc        1 MOL      0.001293
     94 H39        -4.7840   -1.7260   -1.8550 hc        1 MOL      0.008859
     95 H40        -5.5680   -3.2630   -1.6370 hc        1 MOL      0.008859
     96 H41        -3.3980   -2.7450   -4.5930 hc        1 MOL      0.062029
     97 H42        -2.8490   -1.5670   -3.4240 hc        1 MOL      0.062029
     98 H43        -1.8420   -3.0820   -3.8000 hc        1 MOL      0.062029
     99 H44        -5.3760   -1.6630   -4.2360 hc        1 MOL      0.002723
    100 H45        -6.0130   -3.2910   -4.1710 hc        1 MOL      0.002723
    101 H46        -6.7400   -2.0190   -3.1960 hc        1 MOL      0.002723
    102 N10        -3.9760   -2.6190    0.5170 n         1 MOL     -0.236232
    103 C32        -4.8070   -2.7870    1.6830 c3        1 MOL      0.045910
    104 C33        -6.1680   -2.0410    1.6240 c         1 MOL      0.469972
    105 O16        -6.9900   -2.2630    2.4720 o         1 MOL     -0.547719
    106 C34        -4.0400   -2.5230    3.0210 c3        1 MOL     -0.034810
    107 C35        -2.7200   -3.2440    3.0730 c         1 MOL      0.680765
    108 O17        -2.6850   -4.4000    3.4810 o         1 MOL     -0.702108
    109 O18        -1.6970   -2.6090    2.8090 o         1 MOL     -0.702108
    110 H47        -3.7560   -1.6760    0.2390 hn        1 MOL      0.242159
    111 H48        -5.1630   -3.8100    1.8090 h1        1 MOL      0.077230
    112 H49        -4.6260   -2.7960    3.9030 hc        1 MOL     -0.007419
    113 H50        -3.8880   -1.4420    3.0620 hc        1 MOL     -0.007419
    114 N11        -6.3390   -1.0960    0.7070 n         1 MOL     -0.562148
    115 C36        -7.5010   -0.2780    0.5780 c3        1 MOL      0.284004
    116 C37        -7.1490    1.2020    0.2230 c         1 MOL      0.167095
    117 O19        -7.4380    1.6960   -0.8940 o         1 MOL     -0.419072
    118 C38        -8.6500   -0.9720   -0.2370 c3        1 MOL     -0.276422
    119 C39        -9.9050   -0.1850   -0.4050 ca        1 MOL      0.097845
    120 C40       -10.6180    0.3800    0.7070 ca        1 MOL     -0.158213
    121 C41       -10.3810    0.0650   -1.6720 ca        1 MOL     -0.158213
    122 C42       -11.8020    1.0540    0.4360 ca        1 MOL     -0.112630
    123 C43       -11.5670    0.7400   -1.8970 ca        1 MOL     -0.112630
    124 C44       -12.2570    1.2210   -0.8400 ca        1 MOL     -0.091475
    125 H51        -5.5400   -0.7480    0.1830 hn        1 MOL      0.422387
    126 H52        -7.9950   -0.2670    1.5470 h1        1 MOL      0.039615
    127 H53        -8.9540   -1.8300    0.3680 hc        1 MOL      0.113316
    128 H54        -8.2890   -1.3720   -1.1760 hc        1 MOL      0.113316
    129 H55       -10.3000    0.2520    1.7350 ha        1 MOL      0.117042
    130 H56        -9.7840   -0.2500   -2.5140 ha        1 MOL      0.117042
    131 H57       -12.4310    1.4370    1.2280 ha        1 MOL      0.095767
    132 H58       -11.9130    0.7790   -2.9230 ha        1 MOL      0.095767
    133 H59       -13.2500    1.6420   -0.9310 ha        1 MOL      0.077302
    134 N12        -6.4650    1.8630    1.1220 n         1 MOL      0.071288
    135 C45        -6.1110    3.2600    0.9460 c3        1 MOL     -0.024448
    136 C46        -5.2620    3.6150   -0.2810 c         1 MOL      0.262559
    137 O20        -5.1820    4.7970   -0.5910 o         1 MOL     -0.463113
    138 C47        -5.3340    3.6460    2.2270 c3        1 MOL     -0.053574
    139 C48        -5.9750    2.7300    3.2850 c3        1 MOL     -0.055071
    140 C49        -6.2270    1.4730    2.4610 c3        1 MOL     -0.099226
    141 H60        -6.9910    3.8990    0.9390 h1        1 MOL      0.087768
    142 H61        -4.3010    3.2880    2.1310 hc        1 MOL      0.052549
    143 H62        -5.4970    4.6970    2.4650 hc        1 MOL      0.052549
    144 H63        -5.3310    2.5990    4.1560 hc        1 MOL      0.030428
    145 H64        -6.9430    3.1170    3.5930 hc        1 MOL      0.030428
    146 H65        -5.3080    0.8880    2.5060 h1        1 MOL      0.077640
    147 H66        -7.0300    0.9000    2.9250 h1        1 MOL      0.077640
    148 N13        -4.5710    2.6030   -0.8650 n         1 MOL     -0.155583
    149 C50        -3.7880    2.7410   -2.1280 c3        1 MOL     -0.250700
    150 C51        -4.7280    3.0420   -3.2560 c         1 MOL      0.503646
    151 O21        -4.4330    3.8570   -4.1450 o         1 MOL     -0.554681
    152 C52        -2.9590    1.4500   -2.4220 c3        1 MOL      0.089309
    153 C53        -2.0380    1.0240   -1.2770 c3        1 MOL     -0.283569
    154 C54        -2.7280    0.2970   -0.1530 c         1 MOL      0.829703
    155 O22        -2.0310   -0.0620    0.8420 o         1 MOL     -0.814968
    156 O23        -3.9300    0.0290   -0.2760 o         1 MOL     -0.814968
    157 H67        -4.7250    1.6500   -0.5730 hn        1 MOL      0.276353
    158 H68        -3.0960    3.5770   -2.0430 h1        1 MOL      0.153761
    159 H69        -2.3360    1.6620   -3.2890 hc        1 MOL      0.014921
    160 H70        -3.6200    0.6190   -2.6570 hc        1 MOL      0.014921
    161 H71        -1.4520    1.8740   -0.9230 hc        1 MOL      0.081996
    162 H72        -1.3940    0.2960   -1.7640 hc        1 MOL      0.081996
    163 N14        -5.9500    2.4590   -3.2300 n         1 MOL     -0.121198
    164 C55        -6.9460    2.7710   -4.2020 c3        1 MOL     -0.248748
    165 H73        -6.9510    2.0030   -4.9750 h1        1 MOL      0.093762
    166 H74        -7.9240    2.8080   -3.7220 h1        1 MOL      0.093762
    167 H75        -6.7240    3.7380   -4.6530 h1        1 MOL      0.093762
    168 H76        -6.2040    1.9260   -2.4080 hn        1 MOL      0.145637
    169 Ca1         0.2550   -1.1010    1.8590 Ca        1 MOL      1.729089
    170 O24         2.6020   -0.9590    0.4050 oh        1 MOL     -0.811884
    171 H77         3.2160   -0.2520    0.6200 ho        1 MOL      0.393706
    172 H78         3.0770   -1.7570    0.6610 ho        1 MOL      0.393706
    173 O25         1.3130   -3.0500    3.2780 oh        1 MOL     -0.811884
    174 H79         0.8480   -3.7690    3.6960 ho        1 MOL      0.393706
    175 H80         1.8610   -2.6810    3.9640 ho        1 MOL      0.393706
    176 O26         0.3870    1.5850    1.1470 oh        1 MOL     -0.811884
    177 H81        -0.4710    2.0010    1.2340 ho        1 MOL      0.393706
    178 H82         1.0080    2.2670    1.3960 ho        1 MOL      0.393706
    179 O27        -0.1380    0.0730    4.2710 oh        1 MOL     -0.811884
    180 H83        -0.9330    0.0620    4.8080 ho        1 MOL      0.393706
    181 H84         0.1900    0.9720    4.3450 ho        1 MOL      0.393706
@<TRIPOS>BOND
     1    1    2 1   
     2    1    4 1   
     3    1    5 1   
     4    1    6 1   
     5    2    3 2   
     6    2    7 1   
     7    7    8 1   
     8    7   15 1   
     9    8    9 1   
    10    8   11 1   
    11    8   16 1   
    12    9   10 2   
    13    9   19 1   
    14   11   12 1   
    15   11   17 1   
    16   11   18 1   
    17   12   13 1   
    18   12   14 1   
    19   19   20 1   
    20   19   24 1   
    21   20   21 1   
    22   20   23 1   
    23   20   25 1   
    24   21   22 2   
    25   21   29 1   
    26   23   26 1   
    27   23   27 1   
    28   23   28 1   
    29   29   30 1   
    30   29   37 1   
    31   30   31 1   
    32   30   33 1   
    33   30   38 1   
    34   31   32 2   
    35   31   41 1   
    36   33   34 1   
    37   33   39 1   
    38   33   40 1   
    39   34   35 1   
    40   34   36 1   
    41   41   42 1   
    42   41   45 1   
    43   42   43 1   
    44   42   46 1   
    45   42   47 1   
    46   43   44 2   
    47   43   48 1   
    48   48   49 1   
    49   48   56 1   
    50   49   50 1   
    51   49   52 1   
    52   49   57 1   
    53   50   51 2   
    54   50   62 1   
    55   52   53 1   
    56   52   58 1   
    57   52   59 1   
    58   53   54 1   
    59   53   55 2   
    60   54   60 1   
    61   54   61 1   
    62   62   63 1   
    63   62   66 1   
    64   63   64 1   
    65   63   67 1   
    66   63   68 1   
    67   64   65 2   
    68   64   69 1   
    69   69   70 1   
    70   69   76 1   
    71   70   71 1   
    72   70   73 1   
    73   70   77 1   
    74   71   72 2   
    75   71   83 1   
    76   73   74 1   
    77   73   75 1   
    78   73   78 1   
    79   74   80 1   
    80   74   81 1   
    81   74   82 1   
    82   75   79 1   
    83   83   84 1   
    84   83   91 1   
    85   84   85 1   
    86   84   87 1   
    87   84   92 1   
    88   85   86 2   
    89   85  102 1   
    90   87   88 1   
    91   87   89 1   
    92   87   93 1   
    93   88   90 1   
    94   88   94 1   
    95   88   95 1   
    96   89   96 1   
    97   89   97 1   
    98   89   98 1   
    99   90   99 1   
   100   90  100 1   
   101   90  101 1   
   102  102  103 1   
   103  102  110 1   
   104  103  104 1   
   105  103  106 1   
   106  103  111 1   
   107  104  105 2   
   108  104  114 1   
   109  106  107 1   
   110  106  112 1   
   111  106  113 1   
   112  107  108 1   
   113  107  109 1   
   114  114  115 1   
   115  114  125 1   
   116  115  116 1   
   117  115  118 1   
   118  115  126 1   
   119  116  117 2   
   120  116  134 1   
   121  118  119 1   
   122  118  127 1   
   123  118  128 1   
   124  119  120 ar  
   125  119  121 ar  
   126  120  122 ar  
   127  120  129 1   
   128  121  123 ar  
   129  121  130 1   
   130  122  124 ar  
   131  122  131 1   
   132  123  124 ar  
   133  123  132 1   
   134  124  133 1   
   135  134  135 1   
   136  134  140 1   
   137  135  136 1   
   138  135  138 1   
   139  135  141 1   
   140  136  137 2   
   141  136  148 1   
   142  138  139 1   
   143  138  142 1   
   144  138  143 1   
   145  139  140 1   
   146  139  144 1   
   147  139  145 1   
   148  140  146 1   
   149  140  147 1   
   150  148  149 1   
   151  148  157 1   
   152  149  150 1   
   153  149  152 1   
   154  149  158 1   
   155  150  151 2   
   156  150  163 1   
   157  152  153 1   
   158  152  159 1   
   159  152  160 1   
   160  153  154 1   
   161  153  161 1   
   162  153  162 1   
   163  154  155 1   
   164  154  156 1   
   165  163  164 1   
   166  163  168 1   
   167  164  165 1   
   168  164  166 1   
   169  164  167 1   
   170  170  171 1   
   171  170  172 1   
   172  173  174 1   
   173  173  175 1   
   174  176  177 1   
   175  176  178 1   
   176  179  180 1   
   177  179  181 1   
@<TRIPOS>SUBSTRUCTURE
     1 MOL         1 TEMP              0 ****  ****    0 ROOT
