@<TRIPOS>MOLECULE
MOL
  192   187     1     0     0
SMALL
resp


@<TRIPOS>ATOM
      1 C1        -11.1260    5.6890    3.6960 c3        1 MOL     -0.429021
      2 C2        -11.0630    4.2690    3.1310 c         1 MOL      0.582369
      3 O1        -11.6850    3.3810    3.6770 o         1 MOL     -0.567111
      4 H1        -10.6220    6.3730    3.0140 hc        1 MOL      0.119279
      5 H2        -12.1680    5.9900    3.8090 hc        1 MOL      0.119279
      6 H3        -10.6320    5.7160    4.6680 hc        1 MOL      0.119279
      7 N1        -10.5280    4.1420    1.8940 n         1 MOL     -0.068629
      8 C3        -10.7080    2.8650    1.1580 c3        1 MOL     -0.260127
      9 C4         -9.3310    2.1690    1.1020 c         1 MOL      0.272352
     10 O2         -8.2770    2.7190    0.6970 o         1 MOL     -0.578327
     11 C5        -11.1760    3.0500   -0.2980 c3        1 MOL      0.021870
     12 C6        -10.8880    4.4640   -0.9660 c         1 MOL      0.726589
     13 O3         -9.6760    4.8960   -0.9260 o         1 MOL     -0.689332
     14 O4        -11.7970    5.1400   -1.4560 o         1 MOL     -0.689332
     15 H4        -10.1480    4.9040    1.3480 hn        1 MOL      0.040247
     16 H5        -11.4720    2.1830    1.5320 h1        1 MOL      0.146839
     17 H6        -12.2660    2.9680   -0.3110 hc        1 MOL      0.029125
     18 H7        -10.7690    2.2520   -0.9100 hc        1 MOL      0.029125
     19 N2         -9.4530    0.8710    1.3910 n         1 MOL     -0.127491
     20 C7         -8.3390   -0.0920    1.2770 c3        1 MOL     -0.212127
     21 C8         -7.9200   -0.4220   -0.1560 c         1 MOL      0.769485
     22 O5         -8.5660   -1.2710   -0.7960 o         1 MOL     -0.596366
     23 C9         -8.6670   -1.3260    2.1510 c3        1 MOL     -0.252985
     24 C10        -7.3700   -2.1670    2.3760 c3        1 MOL      0.236946
     25 C11        -7.5340   -3.3800    3.1950 c3        1 MOL     -0.002828
     26 C12        -6.1600   -4.0940    3.2190 c3        1 MOL      0.028767
     27 N3         -6.2400   -5.3670    4.0520 n4        1 MOL     -0.418393
     28 H8        -10.3210    0.4710    1.7230 hn        1 MOL      0.235922
     29 H9         -7.5130    0.4460    1.7460 h1        1 MOL      0.147449
     30 H10        -9.4080   -1.9560    1.6690 hc        1 MOL      0.101197
     31 H11        -9.1020   -1.0310    3.1050 hc        1 MOL      0.101197
     32 H12        -6.6350   -1.4870    2.8170 hc        1 MOL     -0.059644
     33 H13        -6.9140   -2.4210    1.4220 hc        1 MOL     -0.059644
     34 H14        -8.3480   -3.9630    2.7890 hc        1 MOL      0.011279
     35 H15        -7.7930   -3.0320    4.2030 hc        1 MOL      0.011279
     36 H16        -5.4610   -3.4060    3.6880 hx        1 MOL      0.109156
     37 H17        -5.8860   -4.3360    2.1950 hx        1 MOL      0.109156
     38 H18        -6.5340   -5.2580    5.0030 hn        1 MOL      0.324708
     39 H19        -6.9030   -5.9560    3.5710 hn        1 MOL      0.324708
     40 H20        -5.3970   -5.8990    3.8630 hn        1 MOL      0.324708
     41 N4         -6.7690    0.0420   -0.5080 n         1 MOL     -0.425224
     42 C13        -5.9460   -0.1140   -1.6870 c3        1 MOL      0.076260
     43 C14        -4.5230    0.2290   -1.3570 c         1 MOL      0.425868
     44 O6         -4.2020    1.0490   -0.4860 o         1 MOL     -0.582015
     45 C15        -6.5020    0.6770   -2.9000 c3        1 MOL     -0.315824
     46 C16        -6.9880    2.1440   -2.6170 c         1 MOL      0.809512
     47 O7         -8.1720    2.4990   -2.4360 o         1 MOL     -0.713881
     48 O8         -6.1440    3.0670   -2.7480 o         1 MOL     -0.713881
     49 H21        -6.3950    0.6720    0.1970 hn        1 MOL      0.227040
     50 H22        -6.0860   -1.1570   -1.9560 h1        1 MOL      0.096397
     51 H23        -7.4300    0.2020   -3.2100 hc        1 MOL      0.102927
     52 H24        -5.7860    0.7180   -3.7210 hc        1 MOL      0.102927
     53 N5         -3.5290   -0.1810   -2.1250 n         1 MOL     -0.412912
     54 C17        -3.5320   -1.3430   -3.0770 c3        1 MOL     -0.030411
     55 C18        -3.5220   -2.7360   -2.4730 c         1 MOL      0.537526
     56 O9         -3.5560   -2.8280   -1.2110 o         1 MOL     -0.545625
     57 H25        -2.6310    0.0930   -1.7670 hn        1 MOL      0.369761
     58 H26        -2.6240   -1.3730   -3.6770 h1        1 MOL      0.073027
     59 H27        -4.3620   -1.2720   -3.7660 h1        1 MOL      0.073027
     60 N6         -3.2880   -3.7810   -3.2440 n         1 MOL     -0.334177
     61 C19        -3.3740   -5.2000   -2.7440 c3        1 MOL     -0.116984
     62 C20        -2.3940   -5.6190   -1.7060 c         1 MOL      0.709559
     63 O10        -1.1890   -5.4600   -2.0160 o         1 MOL     -0.528852
     64 C21        -3.2840   -6.1490   -3.9700 c3        1 MOL     -0.112690
     65 C22        -3.5300   -7.5770   -3.5610 c         1 MOL      0.677337
     66 O11        -4.6950   -7.8020   -3.1650 o         1 MOL     -0.685105
     67 O12        -2.5990   -8.4130   -3.6610 o         1 MOL     -0.685105
     68 H28        -3.2040   -3.5960   -4.2350 hn        1 MOL      0.258831
     69 H29        -4.3700   -5.3290   -2.3190 h1        1 MOL      0.042577
     70 H30        -2.2940   -6.0630   -4.4270 hc        1 MOL      0.039649
     71 H31        -4.0690   -5.9010   -4.6930 hc        1 MOL      0.039649
     72 N7         -2.8460   -6.0330   -0.5190 n         1 MOL     -0.496469
     73 C23        -2.0680   -6.2890    0.7320 c3        1 MOL     -0.035113
     74 C24        -1.6580   -5.0150    1.5680 c         1 MOL      0.357165
     75 O13        -1.2810   -5.1600    2.7550 o         1 MOL     -0.542123
     76 H32        -3.8410   -6.0270   -0.3250 hn        1 MOL      0.284322
     77 H33        -1.1500   -6.7820    0.4170 h1        1 MOL      0.104563
     78 H34        -2.5730   -6.8990    1.4870 h1        1 MOL      0.104563
     79 N8         -1.7890   -3.8270    0.9320 n         1 MOL     -0.073201
     80 C25        -1.2350   -2.5540    1.4240 c3        1 MOL      0.109093
     81 C26        -0.3770   -1.8310    0.4700 c         1 MOL      0.294675
     82 O14        -0.5000   -1.9850   -0.7670 o         1 MOL     -0.441709
     83 C27        -2.3780   -1.6920    1.7700 c3        1 MOL      0.337625
     84 C28        -3.4150   -2.4340    2.5460 c3        1 MOL     -0.539505
     85 O15        -1.9570   -0.6730    2.6760 oh        1 MOL     -0.645612
     86 H35        -2.0950   -3.8220   -0.0310 hn        1 MOL      0.060664
     87 H36        -0.6090   -2.6870    2.3070 h1        1 MOL      0.060257
     88 H37        -2.8250   -1.2190    0.8990 h1        1 MOL      0.099620
     89 H38        -2.7210   -0.2110    3.0250 ho        1 MOL      0.412247
     90 H39        -2.9540   -2.8180    3.4570 hc        1 MOL      0.113246
     91 H40        -4.2600   -1.8040    2.8150 hc        1 MOL      0.113246
     92 H41        -3.9930   -3.1950    2.0290 hc        1 MOL      0.113246
     93 N9          0.4760   -0.9420    1.0330 n         1 MOL     -0.205353
     94 C29         1.1610    0.1230    0.2910 c3        1 MOL     -0.336007
     95 C30         2.6660   -0.0150    0.0590 c         1 MOL      0.528848
     96 O16         3.3080    0.8580   -0.4420 o         1 MOL     -0.545292
     97 C31         0.6360    1.5310    0.6780 c3        1 MOL      0.414168
     98 C32         1.2260    1.9930    2.0100 c3        1 MOL      0.105008
     99 C33        -0.8790    1.6570    0.4870 c3        1 MOL     -0.104666
    100 C34         0.9880    3.4740    2.2560 c3        1 MOL     -0.333480
    101 H42         0.4570   -0.8380    2.0290 hn        1 MOL      0.253316
    102 H43         0.7710    0.0630   -0.7290 h1        1 MOL      0.134066
    103 H44         0.9990    2.2760   -0.0220 hc        1 MOL     -0.058970
    104 H45         2.2710    1.6700    2.0050 hc        1 MOL     -0.023944
    105 H46         0.8240    1.3990    2.8400 hc        1 MOL     -0.023944
    106 H47        -1.1690    2.7050    0.4990 hc        1 MOL     -0.009842
    107 H48        -1.1170    1.2030   -0.4710 hc        1 MOL     -0.009842
    108 H49        -1.3720    1.1670    1.3350 hc        1 MOL     -0.009842
    109 H50         1.5770    4.0120    1.5210 hc        1 MOL      0.081983
    110 H51        -0.0660    3.6760    2.0300 hc        1 MOL      0.081983
    111 H52         1.2460    3.8380    3.2430 hc        1 MOL      0.081983
    112 N10         3.3660   -0.9960    0.6210 n         1 MOL     -0.249403
    113 C35         4.6560   -1.4280    0.1750 c3        1 MOL     -0.096880
    114 C36         5.4980   -1.9780    1.3330 c         1 MOL      0.584482
    115 O17         4.9870   -2.3840    2.3510 o         1 MOL     -0.509017
    116 C37         4.4630   -2.6030   -0.8200 c3        1 MOL      0.353322
    117 C38         3.3670   -2.4340   -1.8400 c3        1 MOL     -0.238180
    118 O18         5.6150   -2.7520   -1.6120 oh        1 MOL     -0.646344
    119 H53         2.8920   -1.6030    1.2710 hn        1 MOL      0.158522
    120 H54         5.2250   -0.6230   -0.2770 h1        1 MOL      0.113578
    121 H55         4.2320   -3.5450   -0.3380 h1        1 MOL      0.039086
    122 H56         5.5120   -2.1470   -2.3440 ho        1 MOL      0.393382
    123 H57         2.3960   -2.1440   -1.4420 hc        1 MOL      0.069035
    124 H58         3.6690   -1.7460   -2.6240 hc        1 MOL      0.069035
    125 H59         3.1860   -3.3490   -2.4070 hc        1 MOL      0.069035
    126 N11         6.8600   -1.8020    1.2380 n         1 MOL     -0.495321
    127 C39         7.8790   -2.1060    2.2080 c3        1 MOL     -0.045479
    128 C40         8.9860   -1.0700    2.3070 c         1 MOL      0.611871
    129 O19         9.5740   -0.9620    3.3600 o         1 MOL     -0.565427
    130 C41         8.5020   -3.4930    1.8580 c3        1 MOL      0.393502
    131 C42         9.5770   -4.0370    2.7860 c3        1 MOL     -0.479538
    132 O20         8.9900   -3.5490    0.5310 oh        1 MOL     -0.605598
    133 H60         7.2470   -1.4830    0.3600 hn        1 MOL      0.212327
    134 H61         7.4060   -2.2530    3.1790 h1        1 MOL      0.108138
    135 H62         7.6620   -4.1890    1.9010 h1        1 MOL      0.014442
    136 H63         8.3390   -3.9080   -0.0740 ho        1 MOL      0.381655
    137 H64        10.4750   -3.4300    2.6800 hc        1 MOL      0.130229
    138 H65         9.2580   -4.1150    3.8230 hc        1 MOL      0.130229
    139 H66         9.8630   -5.0300    2.4500 hc        1 MOL      0.130229
    140 N12         9.3590   -0.3820    1.2340 n         1 MOL     -0.421303
    141 C43        10.4360    0.6100    1.1600 c3        1 MOL      0.024336
    142 C44        10.2940    1.6760    0.1080 c         1 MOL      0.482742
    143 O21         9.7270    1.4350   -0.9600 o         1 MOL     -0.541009
    144 C45        11.8110   -0.0910    0.8870 c3        1 MOL     -0.117372
    145 C46        11.9520   -0.6750   -0.5540 c3        1 MOL      0.011661
    146 C47        13.0050   -1.7790   -0.4920 c3        1 MOL     -0.081322
    147 C48        13.2610   -2.4980   -1.7810 c3        1 MOL      0.131967
    148 N13        14.2040   -3.5950   -1.5870 n4        1 MOL     -0.293345
    149 H67         8.9720   -0.6300    0.3260 hn        1 MOL      0.291655
    150 H68        10.4120    1.0920    2.1410 h1        1 MOL      0.096055
    151 H69        11.9690   -0.8330    1.6670 hc        1 MOL      0.059842
    152 H70        12.5540    0.6910    1.0570 hc        1 MOL      0.059842
    153 H71        12.2030    0.1230   -1.2530 hc        1 MOL      0.035039
    154 H72        11.0140   -1.1760   -0.7560 hc        1 MOL      0.035039
    155 H73        12.6060   -2.5230    0.1940 hc        1 MOL      0.037130
    156 H74        13.9390   -1.3320   -0.1310 hc        1 MOL      0.037130
    157 H75        13.6060   -1.8640   -2.6010 hx        1 MOL      0.053035
    158 H76        12.3290   -2.8890   -2.1870 hx        1 MOL      0.053035
    159 H77        15.0150   -3.2120   -1.1320 hn        1 MOL      0.254172
    160 H78        13.8710   -4.2840   -0.9310 hn        1 MOL      0.254172
    161 H79        14.4390   -3.9490   -2.5110 hn        1 MOL      0.254172
    162 N14        10.7040    2.9070    0.4000 n         1 MOL     -0.468185
    163 C49        11.0290    3.9110   -0.6270 c3        1 MOL      0.281317
    164 C50         9.8140    4.4290   -1.3690 c         1 MOL      0.346578
    165 O22        10.0170    4.6750   -2.5560 o         1 MOL     -0.541053
    166 C51        11.8110    5.0680   -0.0030 c3        1 MOL     -0.128203
    167 C52        12.3830    6.0460   -1.0220 c3        1 MOL     -0.176092
    168 C53        13.3530    6.9770   -0.3420 c         1 MOL      0.760672
    169 O23        14.5240    6.7900   -0.5170 o         1 MOL     -0.678198
    170 O24        12.8920    7.9710    0.2100 o         1 MOL     -0.678198
    171 H80        11.1340    3.0520    1.3010 hn        1 MOL      0.252262
    172 H81        11.7260    3.5720   -1.3980 h1        1 MOL      0.047746
    173 H82        12.6490    4.6920    0.5750 hc        1 MOL      0.034436
    174 H83        11.2090    5.6620    0.6880 hc        1 MOL      0.034436
    175 H84        11.5720    6.5930   -1.5040 hc        1 MOL      0.045656
    176 H85        12.8810    5.4350   -1.7880 hc        1 MOL      0.045656
    177 N15         8.6050    4.6110   -0.8420 n         1 MOL     -0.227953
    178 C54         8.1570    4.7050    0.5790 c3        1 MOL     -0.111103
    179 H86         7.9260    3.7080    0.9530 h1        1 MOL      0.070705
    180 H87         8.9520    5.1440    1.1830 h1        1 MOL      0.070705
    181 H88         7.2670    5.3310    0.6390 h1        1 MOL      0.070705
    182 H89         7.8890    4.9210   -1.4840 hn        1 MOL      0.252542
    183 Ca1        -7.2000    4.6830   -0.9980 Ca        1 MOL      1.749535
    184 O25        -5.2780    3.2960    0.0770 oh        1 MOL     -0.937267
    185 O26        -4.9120    5.9430   -1.8520 oh        1 MOL     -0.937267
    186 H90        -4.8370    2.4960   -0.2300 ho        1 MOL      0.451524
    187 H91        -5.1200    6.2980   -2.7180 ho        1 MOL      0.451524
    188 H92        -4.5710    3.8240    0.4550 ho        1 MOL      0.451524
    189 H93        -4.0310    6.2710   -1.6660 ho        1 MOL      0.451524
    190 O27        -7.5690    5.9070   -3.5430 oh        1 MOL     -0.937267
    191 H94        -8.4480    6.2540   -3.6410 ho        1 MOL      0.451524
    192 H95        -7.0730    6.2990   -4.2630 ho        1 MOL      0.451524
@<TRIPOS>BOND
     1    1    2 1   
     2    1    4 1   
     3    1    5 1   
     4    1    6 1   
     5    2    3 2   
     6    2    7 1   
     7    7    8 1   
     8    7   15 1   
     9    8    9 1   
    10    8   11 1   
    11    8   16 1   
    12    9   10 2   
    13    9   19 1   
    14   11   12 1   
    15   11   17 1   
    16   11   18 1   
    17   12   13 1   
    18   12   14 1   
    19   19   20 1   
    20   19   28 1   
    21   20   21 1   
    22   20   23 1   
    23   20   29 1   
    24   21   22 2   
    25   21   41 1   
    26   23   24 1   
    27   23   30 1   
    28   23   31 1   
    29   24   25 1   
    30   24   32 1   
    31   24   33 1   
    32   25   26 1   
    33   25   34 1   
    34   25   35 1   
    35   26   27 1   
    36   26   36 1   
    37   26   37 1   
    38   27   38 1   
    39   27   39 1   
    40   27   40 1   
    41   41   42 1   
    42   41   49 1   
    43   42   43 1   
    44   42   45 1   
    45   42   50 1   
    46   43   44 2   
    47   43   53 1   
    48   45   46 1   
    49   45   51 1   
    50   45   52 1   
    51   46   47 1   
    52   46   48 1   
    53   53   54 1   
    54   53   57 1   
    55   54   55 1   
    56   54   58 1   
    57   54   59 1   
    58   55   56 2   
    59   55   60 1   
    60   60   61 1   
    61   60   68 1   
    62   61   62 1   
    63   61   64 1   
    64   61   69 1   
    65   62   63 2   
    66   62   72 1   
    67   64   65 1   
    68   64   70 1   
    69   64   71 1   
    70   65   66 1   
    71   65   67 1   
    72   72   73 1   
    73   72   76 1   
    74   73   74 1   
    75   73   77 1   
    76   73   78 1   
    77   74   75 2   
    78   74   79 1   
    79   79   80 1   
    80   79   86 1   
    81   80   81 1   
    82   80   83 1   
    83   80   87 1   
    84   81   82 2   
    85   81   93 1   
    86   83   84 1   
    87   83   85 1   
    88   83   88 1   
    89   84   90 1   
    90   84   91 1   
    91   84   92 1   
    92   85   89 1   
    93   93   94 1   
    94   93  101 1   
    95   94   95 1   
    96   94   97 1   
    97   94  102 1   
    98   95   96 2   
    99   95  112 1   
   100   97   98 1   
   101   97   99 1   
   102   97  103 1   
   103   98  100 1   
   104   98  104 1   
   105   98  105 1   
   106   99  106 1   
   107   99  107 1   
   108   99  108 1   
   109  100  109 1   
   110  100  110 1   
   111  100  111 1   
   112  112  113 1   
   113  112  119 1   
   114  113  114 1   
   115  113  116 1   
   116  113  120 1   
   117  114  115 2   
   118  114  126 1   
   119  116  117 1   
   120  116  118 1   
   121  116  121 1   
   122  117  123 1   
   123  117  124 1   
   124  117  125 1   
   125  118  122 1   
   126  126  127 1   
   127  126  133 1   
   128  127  128 1   
   129  127  130 1   
   130  127  134 1   
   131  128  129 2   
   132  128  140 1   
   133  130  131 1   
   134  130  132 1   
   135  130  135 1   
   136  131  137 1   
   137  131  138 1   
   138  131  139 1   
   139  132  136 1   
   140  140  141 1   
   141  140  149 1   
   142  141  142 1   
   143  141  144 1   
   144  141  150 1   
   145  142  143 2   
   146  142  162 1   
   147  144  145 1   
   148  144  151 1   
   149  144  152 1   
   150  145  146 1   
   151  145  153 1   
   152  145  154 1   
   153  146  147 1   
   154  146  155 1   
   155  146  156 1   
   156  147  148 1   
   157  147  157 1   
   158  147  158 1   
   159  148  159 1   
   160  148  160 1   
   161  148  161 1   
   162  162  163 1   
   163  162  171 1   
   164  163  164 1   
   165  163  166 1   
   166  163  172 1   
   167  164  165 2   
   168  164  177 1   
   169  166  167 1   
   170  166  173 1   
   171  166  174 1   
   172  167  168 1   
   173  167  175 1   
   174  167  176 1   
   175  168  169 1   
   176  168  170 1   
   177  177  178 1   
   178  177  182 1   
   179  178  179 1   
   180  178  180 1   
   181  178  181 1   
   182  184  186 1   
   183  184  188 1   
   184  185  187 1   
   185  185  189 1   
   186  190  191 1   
   187  190  192 1   
@<TRIPOS>SUBSTRUCTURE
     1 MOL         1 TEMP              0 ****  ****    0 ROOT
