@<TRIPOS>MOLECULE
MOL
  192   187     1     0     0
SMALL
resp


@<TRIPOS>ATOM
      1 C1         -4.4720   -4.8390   -2.6700 c3        1 MOL     -0.441777
      2 C2         -5.0690   -3.6960   -1.7290 c         1 MOL      0.857013
      3 O1         -4.3590   -3.2570   -0.8380 o         1 MOL     -0.639842
      4 H1         -4.0040   -5.6070   -2.0550 hc        1 MOL      0.104686
      5 H2         -5.2750   -5.2840   -3.2570 hc        1 MOL      0.104686
      6 H3         -3.7280   -4.4070   -3.3400 hc        1 MOL      0.104686
      7 N1         -6.3150   -3.3800   -1.9900 n         1 MOL     -0.797309
      8 C3         -7.0120   -2.1720   -1.5200 c3        1 MOL      0.301394
      9 C4         -6.0740   -0.9990   -1.4800 c         1 MOL      0.289585
     10 O2         -5.6640   -0.5530   -0.4140 o         1 MOL     -0.467730
     11 C5         -7.8660   -2.4900   -0.2900 c3        1 MOL     -0.141809
     12 C6         -7.2810   -3.3150    0.7740 c         1 MOL      0.744733
     13 O3         -6.6960   -2.7810    1.7380 o         1 MOL     -0.733299
     14 O4         -7.3670   -4.6080    0.6630 o         1 MOL     -0.733299
     15 H4         -6.8560   -3.9260   -2.6460 hn        1 MOL      0.379900
     16 H5         -7.7330   -1.9220   -2.2930 h1        1 MOL      0.029014
     17 H6         -8.7610   -2.8970   -0.7580 hc        1 MOL      0.020040
     18 H7         -8.2360   -1.6020    0.2140 hc        1 MOL      0.020040
     19 N2         -5.7020   -0.5650   -2.6560 n         1 MOL     -0.380468
     20 C7         -4.7960    0.6680   -2.9450 c3        1 MOL     -0.008094
     21 C8         -5.3250    2.0430   -2.6040 c         1 MOL      0.443721
     22 O5         -5.4210    2.9310   -3.4630 o         1 MOL     -0.570101
     23 C9         -3.3070    0.4170   -2.6860 c3        1 MOL      0.538714
     24 C10        -2.3720    1.4830   -3.2530 c3        1 MOL     -0.198674
     25 C11        -2.9400   -0.9640   -3.3540 c3        1 MOL     -0.250425
     26 C12        -2.3760    1.5060   -4.8360 c3        1 MOL     -0.340759
     27 H8         -6.1000   -1.1120   -3.4040 hn        1 MOL      0.252708
     28 H9         -4.8560    0.6250   -4.0340 h1        1 MOL      0.058673
     29 H10        -3.1580    0.4800   -1.6000 hc        1 MOL     -0.265604
     30 H11        -1.3300    1.2930   -2.9690 hc        1 MOL      0.131091
     31 H12        -2.6310    2.4600   -2.8500 hc        1 MOL      0.131091
     32 H13        -3.3810   -1.0880   -4.3340 hc        1 MOL      0.040358
     33 H14        -1.8580   -1.0940   -3.3880 hc        1 MOL      0.040358
     34 H15        -3.3640   -1.7570   -2.7320 hc        1 MOL      0.040358
     35 H16        -1.9060    2.4290   -5.1780 hc        1 MOL      0.071641
     36 H17        -1.8990    0.6280   -5.2690 hc        1 MOL      0.071641
     37 H18        -3.3960    1.4040   -5.2020 hc        1 MOL      0.071641
     38 N3         -5.8810    2.2950   -1.4240 n         1 MOL     -0.098027
     39 C13        -6.5530    3.5090   -1.0060 c3        1 MOL     -0.160375
     40 C14        -5.7950    4.8290   -0.9460 c         1 MOL      0.728194
     41 O6         -6.3570    5.7980   -1.3860 o         1 MOL     -0.610276
     42 C15        -7.1660    3.2220    0.4160 c3        1 MOL     -0.350389
     43 C16        -8.1530    2.0530    0.4800 c         1 MOL      0.903866
     44 O7         -8.2240    1.4620    1.5490 o         1 MOL     -0.745601
     45 O8         -9.0780    1.8400   -0.3270 o         1 MOL     -0.745601
     46 H19        -5.8130    1.5280   -0.7610 hn        1 MOL      0.092891
     47 H20        -7.3730    3.7670   -1.6850 h1        1 MOL      0.095562
     48 H21        -7.6800    4.1480    0.6710 hc        1 MOL      0.089720
     49 H22        -6.3880    3.0050    1.1380 hc        1 MOL      0.089720
     50 N4         -4.5870    5.0200   -0.4240 n         1 MOL     -0.630964
     51 C17        -3.7470    4.0480    0.2030 c3        1 MOL      0.399110
     52 C18        -2.4760    4.6570    0.8600 c         1 MOL      0.408950
     53 O9         -2.0010    5.7740    0.6400 o         1 MOL     -0.583996
     54 H23        -4.1940    5.9490   -0.4690 hn        1 MOL      0.284260
     55 H24        -3.3980    3.3950   -0.5970 h1        1 MOL     -0.024165
     56 H25        -4.3560    3.5290    0.9440 h1        1 MOL     -0.024165
     57 N5         -1.7690    3.9970    1.7490 n         1 MOL     -0.301030
     58 C19        -2.1470    2.7140    2.3880 c3        1 MOL      0.118243
     59 C20        -2.3210    1.4690    1.4260 c         1 MOL      0.064027
     60 O10        -3.4340    0.9210    1.1470 o         1 MOL     -0.282511
     61 C21        -3.2730    2.9660    3.4080 c3        1 MOL     -0.392452
     62 C22        -3.5050    1.8220    4.4190 c         1 MOL      0.726618
     63 O11        -2.5480    1.0000    4.6500 o         1 MOL     -0.671034
     64 O12        -4.6130    1.6840    4.9240 o         1 MOL     -0.671034
     65 H26        -0.9150    4.4410    2.0790 hn        1 MOL      0.258432
     66 H27        -1.2640    2.4950    2.9850 h1        1 MOL      0.043459
     67 H28        -4.2670    3.0140    2.9610 hc        1 MOL      0.092450
     68 H29        -3.2120    3.9380    3.9050 hc        1 MOL      0.092450
     69 N6         -1.2550    0.9060    0.8780 n         1 MOL     -0.003160
     70 C23         0.1610    1.3550    0.8890 c3        1 MOL      0.012121
     71 C24         0.5260    2.5200   -0.0020 c         1 MOL      0.450344
     72 O13        -0.2770    2.9270   -0.8850 o         1 MOL     -0.515715
     73 H30        -1.3680    0.0910    0.2930 hn        1 MOL      0.077664
     74 H31         0.8410    0.5340    0.6730 h1        1 MOL      0.036134
     75 H32         0.4700    1.5380    1.9230 h1        1 MOL      0.036134
     76 N7          1.6670    3.1670    0.2940 n         1 MOL     -0.361842
     77 C25         2.2880    4.2650   -0.4090 c3        1 MOL     -0.000844
     78 C26         3.2200    3.9530   -1.6250 c         1 MOL      0.384672
     79 O14         3.7930    4.9250   -2.1900 o         1 MOL     -0.531266
     80 C27         3.0230    5.2030    0.5350 c3        1 MOL     -0.060509
     81 C28         2.1710    5.7560    1.6600 c3        1 MOL     -0.006887
     82 C29         2.8880    6.5890    2.6410 c         1 MOL      0.600569
     83 N8          2.2630    7.4320    3.4400 n         1 MOL     -0.771753
     84 O15         4.1150    6.4840    2.6850 o         1 MOL     -0.571032
     85 H33         2.1460    2.7970    1.0990 hn        1 MOL      0.252804
     86 H34         1.4390    4.7720   -0.8580 h1        1 MOL      0.123938
     87 H35         3.3540    6.0720   -0.0350 hc        1 MOL      0.039848
     88 H36         3.9130    4.6470    0.8460 hc        1 MOL      0.039848
     89 H37         1.6440    4.9780    2.2230 hc        1 MOL      0.022122
     90 H38         1.2830    6.2890    1.3150 hc        1 MOL      0.022122
     91 H39         1.2880    7.3210    3.6760 hn        1 MOL      0.354352
     92 H40         2.8690    7.8520    4.1200 hn        1 MOL      0.354352
     93 N9          3.3820    2.7070   -2.0190 n         1 MOL     -0.168596
     94 C30         3.9030    2.2930   -3.4060 c3        1 MOL     -0.128401
     95 C31         5.2760    1.5000   -3.2890 c         1 MOL      0.536365
     96 O16         5.7680    1.2550   -4.3980 o         1 MOL     -0.527044
     97 C32         2.8850    1.3200   -4.0610 c3        1 MOL      0.265319
     98 C33         1.5580    1.9380   -4.4930 c3        1 MOL     -0.178563
     99 C34         2.4520    0.0480   -3.2360 c3        1 MOL     -0.178563
    100 H41         2.8410    2.0560   -1.4810 hn        1 MOL      0.136980
    101 H42         3.9850    3.1630   -4.0510 h1        1 MOL      0.141212
    102 H43         3.3050    0.8960   -4.9690 hc        1 MOL     -0.014882
    103 H44         0.9800    2.2680   -3.6310 hc        1 MOL      0.032758
    104 H45         1.9870    2.7770   -5.0340 hc        1 MOL      0.032758
    105 H46         1.0940    1.2500   -5.2110 hc        1 MOL      0.032758
    106 H47         3.2910   -0.4810   -2.7870 hc        1 MOL      0.032758
    107 H48         1.6480    0.2690   -2.5290 hc        1 MOL      0.032758
    108 H49         2.0000   -0.6820   -3.9080 hc        1 MOL      0.032758
    109 N10         5.7790    1.2210   -2.0560 n         1 MOL     -0.422465
    110 C35         7.1920    0.8210   -1.7950 c3        1 MOL      0.070007
    111 C36         7.3040   -0.5730   -1.2070 c         1 MOL      0.447828
    112 O17         8.4350   -1.1500   -1.1680 o         1 MOL     -0.532604
    113 C37         7.8510    1.8460   -0.9510 c3        1 MOL     -0.322758
    114 C38         7.8560    3.2370   -1.5080 c         1 MOL      0.664079
    115 N11         7.3290    4.1980   -0.7510 n         1 MOL     -0.816111
    116 O18         8.3720    3.5480   -2.5680 o         1 MOL     -0.534407
    117 H50         5.1600    1.3910   -1.2760 hn        1 MOL      0.207987
    118 H51         7.7980    0.8450   -2.7000 h1        1 MOL      0.107008
    119 H52         8.8310    1.4600   -0.6880 hc        1 MOL      0.137175
    120 H53         7.2440    1.8580   -0.0390 hc        1 MOL      0.137175
    121 H54         6.8020    4.0440    0.0980 hn        1 MOL      0.374951
    122 H55         7.2770    5.1170   -1.1670 hn        1 MOL      0.374951
    123 N12         6.2270   -1.2170   -0.7600 n         1 MOL     -0.364369
    124 C39         6.2730   -2.5240   -0.1490 c3        1 MOL      0.177934
    125 C40         4.8140   -3.0260   -0.0750 c         1 MOL      0.232880
    126 O19         3.8290   -2.2100   -0.0950 o         1 MOL     -0.469334
    127 C41         6.7900   -2.4840    1.3030 c3        1 MOL      0.083074
    128 C42         7.8780   -1.5820    1.6970 ca        1 MOL     -0.039775
    129 C43         9.2200   -1.8870    1.7160 ca        1 MOL     -0.116440
    130 C44         7.4630   -0.2670    2.0390 ca        1 MOL     -0.116440
    131 C45        10.1910   -0.8690    2.1580 ca        1 MOL     -0.236466
    132 C46         8.4140    0.7100    2.4720 ca        1 MOL     -0.236466
    133 C47         9.7910    0.3680    2.5390 ca        1 MOL      0.297332
    134 O20        10.6890    1.3640    2.9040 oh        1 MOL     -0.513532
    135 H56         5.3870   -0.6910   -0.5590 hn        1 MOL      0.265650
    136 H57         6.8670   -3.2560   -0.7000 h1        1 MOL      0.043938
    137 H58         7.1870   -3.4590    1.5740 hc        1 MOL      0.008325
    138 H59         5.9640   -2.4360    2.0120 hc        1 MOL      0.008325
    139 H60         9.5510   -2.9050    1.5600 ha        1 MOL      0.121325
    140 H61         6.4410    0.0190    2.2200 ha        1 MOL      0.121325
    141 H62        11.2430   -1.0930    2.1770 ha        1 MOL      0.124440
    142 H63         8.1460    1.7180    2.7220 ha        1 MOL      0.124440
    143 H64        11.5770    1.0560    3.0620 ho        1 MOL      0.367404
    144 N13         4.6870   -4.3250    0.1370 n         1 MOL     -0.390691
    145 C48         3.5920   -4.9710    0.9090 c3        1 MOL     -0.012354
    146 C49         2.2780   -5.1850    0.1520 c         1 MOL      0.250810
    147 O21         1.6210   -6.2210    0.3820 o         1 MOL     -0.489786
    148 C50         3.4390   -4.1720    2.2530 c3        1 MOL     -0.152577
    149 C51         2.5190   -4.9190    3.2300 c3        1 MOL     -0.344253
    150 C52         2.3810   -4.3140    4.6210 c         1 MOL      0.717188
    151 O22         2.6010   -5.0080    5.6560 o         1 MOL     -0.732393
    152 O23         2.0690   -3.0930    4.6880 o         1 MOL     -0.732393
    153 H65         5.4950   -4.8960   -0.0300 hn        1 MOL      0.278459
    154 H66         3.9970   -5.9270    1.2350 h1        1 MOL      0.097478
    155 H67         2.9860   -3.2080    2.0220 hc        1 MOL      0.120680
    156 H68         4.4360   -3.9250    2.6260 hc        1 MOL      0.120680
    157 H69         2.9160   -5.9330    3.2790 hc        1 MOL      0.109391
    158 H70         1.5060   -4.8270    2.8280 hc        1 MOL      0.109391
    159 N14         1.8070   -4.2640   -0.6970 n         1 MOL     -0.045421
    160 C53         0.5770   -4.4840   -1.5480 c3        1 MOL     -0.437776
    161 C54         0.8050   -5.5550   -2.6840 c         1 MOL      0.583693
    162 O24        -0.1270   -6.1600   -3.2080 o         1 MOL     -0.545282
    163 C55         0.0070   -3.1230   -2.0010 c3        1 MOL     -0.072297
    164 C56        -0.1060   -2.0490   -0.8760 c3        1 MOL      0.418658
    165 C57        -0.9390   -2.4520    0.3880 c         1 MOL      0.679464
    166 O25        -0.5680   -3.3780    1.1680 o         1 MOL     -0.662134
    167 O26        -1.9710   -1.8460    0.6670 o         1 MOL     -0.662134
    168 H71         2.3180   -3.3960   -0.7860 hn        1 MOL      0.261117
    169 H72        -0.2160   -4.9960   -0.9800 h1        1 MOL      0.238729
    170 H73        -1.0070   -3.3520   -2.3540 hc        1 MOL      0.018649
    171 H74         0.5880   -2.6810   -2.8040 hc        1 MOL      0.018649
    172 H75        -0.5560   -1.1580   -1.3120 hc        1 MOL     -0.136669
    173 H76         0.8430   -1.6300   -0.5600 hc        1 MOL     -0.136669
    174 N15         2.0690   -5.7420   -3.0420 n         1 MOL     -0.200190
    175 C58         2.6360   -6.6710   -3.9860 c3        1 MOL     -0.186298
    176 H77         2.9000   -7.5950   -3.4710 h1        1 MOL      0.077557
    177 H78         1.9090   -6.8860   -4.7670 h1        1 MOL      0.077557
    178 H79         3.5310   -6.2360   -4.4310 h1        1 MOL      0.077557
    179 H80         2.7640   -5.1560   -2.5920 hn        1 MOL      0.189768
    180 Ca1        -4.3880   -1.7410    1.5920 Ca        1 MOL      1.755962
    181 O27        -3.2730   -4.1790    1.7000 oh        1 MOL     -0.846193
    182 H81        -3.3330   -5.1270    1.5630 ho        1 MOL      0.400870
    183 H82        -2.3600   -3.9650    1.5180 ho        1 MOL      0.400870
    184 O28        -5.2190   -2.3980    4.4230 oh        1 MOL     -0.846193
    185 H83        -5.7900   -3.1410    4.6330 ho        1 MOL      0.400870
    186 H84        -4.6620   -2.3060    5.1940 ho        1 MOL      0.400870
    187 O29        -2.7000   -1.3690    3.6950 oh        1 MOL     -0.846193
    188 H85        -1.7620   -1.5290    3.7040 ho        1 MOL      0.400870
    189 H86        -2.8250   -0.6500    4.3240 ho        1 MOL      0.400870
    190 O30        -5.8780    0.3510    2.5700 oh        1 MOL     -0.846193
    191 H87        -6.7500    0.5990    2.2580 ho        1 MOL      0.400870
    192 H88        -5.6660    0.9910    3.2440 ho        1 MOL      0.400870
@<TRIPOS>BOND
     1    1    2 1   
     2    1    4 1   
     3    1    5 1   
     4    1    6 1   
     5    2    3 2   
     6    2    7 1   
     7    7    8 1   
     8    7   15 1   
     9    8    9 1   
    10    8   11 1   
    11    8   16 1   
    12    9   10 2   
    13    9   19 1   
    14   11   12 1   
    15   11   17 1   
    16   11   18 1   
    17   12   13 1   
    18   12   14 1   
    19   19   20 1   
    20   19   27 1   
    21   20   21 1   
    22   20   23 1   
    23   20   28 1   
    24   21   22 2   
    25   21   38 1   
    26   23   24 1   
    27   23   25 1   
    28   23   29 1   
    29   24   26 1   
    30   24   30 1   
    31   24   31 1   
    32   25   32 1   
    33   25   33 1   
    34   25   34 1   
    35   26   35 1   
    36   26   36 1   
    37   26   37 1   
    38   38   39 1   
    39   38   46 1   
    40   39   40 1   
    41   39   42 1   
    42   39   47 1   
    43   40   41 2   
    44   40   50 1   
    45   42   43 1   
    46   42   48 1   
    47   42   49 1   
    48   43   44 1   
    49   43   45 1   
    50   50   51 1   
    51   50   54 1   
    52   51   52 1   
    53   51   55 1   
    54   51   56 1   
    55   52   53 2   
    56   52   57 1   
    57   57   58 1   
    58   57   65 1   
    59   58   59 1   
    60   58   61 1   
    61   58   66 1   
    62   59   60 2   
    63   59   69 1   
    64   61   62 1   
    65   61   67 1   
    66   61   68 1   
    67   62   63 1   
    68   62   64 1   
    69   69   70 1   
    70   69   73 1   
    71   70   71 1   
    72   70   74 1   
    73   70   75 1   
    74   71   72 2   
    75   71   76 1   
    76   76   77 1   
    77   76   85 1   
    78   77   78 1   
    79   77   80 1   
    80   77   86 1   
    81   78   79 2   
    82   78   93 1   
    83   80   81 1   
    84   80   87 1   
    85   80   88 1   
    86   81   82 1   
    87   81   89 1   
    88   81   90 1   
    89   82   83 1   
    90   82   84 2   
    91   83   91 1   
    92   83   92 1   
    93   93   94 1   
    94   93  100 1   
    95   94   95 1   
    96   94   97 1   
    97   94  101 1   
    98   95   96 2   
    99   95  109 1   
   100   97   98 1   
   101   97   99 1   
   102   97  102 1   
   103   98  103 1   
   104   98  104 1   
   105   98  105 1   
   106   99  106 1   
   107   99  107 1   
   108   99  108 1   
   109  109  110 1   
   110  109  117 1   
   111  110  111 1   
   112  110  113 1   
   113  110  118 1   
   114  111  112 2   
   115  111  123 1   
   116  113  114 1   
   117  113  119 1   
   118  113  120 1   
   119  114  115 1   
   120  114  116 2   
   121  115  121 1   
   122  115  122 1   
   123  123  124 1   
   124  123  135 1   
   125  124  125 1   
   126  124  127 1   
   127  124  136 1   
   128  125  126 2   
   129  125  144 1   
   130  127  128 1   
   131  127  137 1   
   132  127  138 1   
   133  128  129 ar  
   134  128  130 ar  
   135  129  131 ar  
   136  129  139 1   
   137  130  132 ar  
   138  130  140 1   
   139  131  133 ar  
   140  131  141 1   
   141  132  133 ar  
   142  132  142 1   
   143  133  134 1   
   144  134  143 1   
   145  144  145 1   
   146  144  153 1   
   147  145  146 1   
   148  145  148 1   
   149  145  154 1   
   150  146  147 2   
   151  146  159 1   
   152  148  149 1   
   153  148  155 1   
   154  148  156 1   
   155  149  150 1   
   156  149  157 1   
   157  149  158 1   
   158  150  151 1   
   159  150  152 1   
   160  159  160 1   
   161  159  168 1   
   162  160  161 1   
   163  160  163 1   
   164  160  169 1   
   165  161  162 2   
   166  161  174 1   
   167  163  164 1   
   168  163  170 1   
   169  163  171 1   
   170  164  165 1   
   171  164  172 1   
   172  164  173 1   
   173  165  166 1   
   174  165  167 1   
   175  174  175 1   
   176  174  179 1   
   177  175  176 1   
   178  175  177 1   
   179  175  178 1   
   180  181  182 1   
   181  181  183 1   
   182  184  185 1   
   183  184  186 1   
   184  187  188 1   
   185  187  189 1   
   186  190  191 1   
   187  190  192 1   
@<TRIPOS>SUBSTRUCTURE
     1 MOL         1 TEMP              0 ****  ****    0 ROOT
