@<TRIPOS>MOLECULE
MOL
  189   185     1     0     0
SMALL
resp


@<TRIPOS>ATOM
      1 C1          6.0130    5.2560   -3.1900 c3        1 MOL     -0.396151
      2 C2          6.1140    3.9820   -2.2280 c         1 MOL      0.725779
      3 O1          5.1410    3.6220   -1.5430 o         1 MOL     -0.571912
      4 H1          5.0400    5.2630   -3.6830 hc        1 MOL      0.095154
      5 H2          6.1270    6.1660   -2.6020 hc        1 MOL      0.095154
      6 H3          6.8000    5.2070   -3.9420 hc        1 MOL      0.095154
      7 N1          7.2380    3.3260   -2.2970 n         1 MOL     -0.627715
      8 C3          7.5410    2.0360   -1.6320 c3        1 MOL      0.138143
      9 C4          6.3440    1.0350   -1.5710 c         1 MOL      0.385725
     10 O2          5.7920    0.7180   -0.5070 o         1 MOL     -0.320494
     11 C5          8.3130    2.2960   -0.3170 c3        1 MOL     -0.056780
     12 C6          7.7280    3.2120    0.7580 c         1 MOL      0.701241
     13 O3          6.5420    3.5640    0.7430 o         1 MOL     -0.706460
     14 O4          8.5490    3.5290    1.5770 o         1 MOL     -0.706460
     15 H4          8.0220    3.8390   -2.6880 hn        1 MOL      0.345991
     16 H5          8.2570    1.5820   -2.3200 h1        1 MOL      0.013026
     17 H6          9.2310    2.7930   -0.6170 hc        1 MOL     -0.005172
     18 H7          8.4910    1.2680    0.0030 hc        1 MOL     -0.005172
     19 N2          5.9330    0.4570   -2.7360 n         1 MOL     -0.457975
     20 C7          5.0190   -0.7040   -2.9220 c3        1 MOL      0.200189
     21 C8          5.4870   -1.9990   -2.2550 c         1 MOL      0.354740
     22 O5          5.4830   -2.9750   -2.9080 o         1 MOL     -0.545336
     23 C9          3.5590   -0.3300   -2.5520 c3        1 MOL      0.090658
     24 C10         2.6350   -1.5960   -2.8140 c3        1 MOL     -0.210458
     25 C11         3.1850    0.8360   -3.4810 c3        1 MOL     -0.247799
     26 C12         2.5370   -2.1210   -4.2160 c3        1 MOL     -0.349610
     27 H8          6.5090    0.6690   -3.5390 hn        1 MOL      0.273909
     28 H9          5.0520   -0.9530   -3.9870 h1        1 MOL      0.042508
     29 H10         3.5570    0.0650   -1.5390 hc        1 MOL     -0.111121
     30 H11         1.6340   -1.2380   -2.5540 hc        1 MOL      0.164610
     31 H12         2.8600   -2.4540   -2.1880 hc        1 MOL      0.164610
     32 H13         3.8730    1.6440   -3.2550 hc        1 MOL      0.051962
     33 H14         3.3430    0.5110   -4.5100 hc        1 MOL      0.051962
     34 H15         2.1330    1.1400   -3.4150 hc        1 MOL      0.051962
     35 H16         2.3110   -1.3150   -4.9060 hc        1 MOL      0.091453
     36 H17         3.4680   -2.5820   -4.5460 hc        1 MOL      0.091453
     37 H18         1.7840   -2.9100   -4.2700 hc        1 MOL      0.091453
     38 N3          5.9280   -1.9820   -1.0190 n         1 MOL     -0.274345
     39 C13         6.6410   -3.0680   -0.3000 c3        1 MOL      0.419921
     40 C14         5.8130   -4.4290   -0.3400 c         1 MOL      0.464434
     41 O6          6.3610   -5.3770   -0.8160 o         1 MOL     -0.564950
     42 C15         7.0520   -2.6880    1.0880 c3        1 MOL     -0.373186
     43 C16         7.9540   -3.7210    1.7950 c         1 MOL      0.686611
     44 O7          7.4260   -4.5900    2.5400 o         1 MOL     -0.683280
     45 O8          9.1600   -3.6980    1.4590 o         1 MOL     -0.683280
     46 H19         5.8440   -1.1150   -0.5130 hn        1 MOL      0.093874
     47 H20         7.5820   -3.2540   -0.8230 h1        1 MOL     -0.052506
     48 H21         6.1420   -2.4230    1.6360 hc        1 MOL      0.075621
     49 H22         7.5970   -1.7620    0.9810 hc        1 MOL      0.075621
     50 N4          4.6390   -4.6100    0.2790 n         1 MOL     -0.305540
     51 C17         3.6540   -3.5590    0.7580 c3        1 MOL      0.054599
     52 C18         2.7180   -4.0600    1.8910 c         1 MOL      0.628773
     53 O9          2.6000   -5.2410    2.0860 o         1 MOL     -0.568424
     54 H23         4.2950   -5.5550    0.2650 hn        1 MOL      0.238849
     55 H24         2.9360   -3.3620   -0.0500 h1        1 MOL     -0.020494
     56 H25         4.1590   -2.6420    1.0650 h1        1 MOL     -0.020494
     57 N5          2.1420   -3.1700    2.7260 n         1 MOL     -0.369760
     58 C19         2.2530   -1.7280    2.7530 c3        1 MOL      0.240407
     59 C20         2.2740   -0.9630    1.4160 c         1 MOL      0.532292
     60 O10         3.1960   -0.2080    1.1170 o         1 MOL     -0.537951
     61 C21         3.4970   -1.3990    3.5820 c3        1 MOL     -0.344452
     62 C22         3.5770   -2.1560    4.9120 c         1 MOL      0.751464
     63 O11         2.8480   -1.7250    5.8550 o         1 MOL     -0.707496
     64 O12         4.3970   -3.0620    5.1100 o         1 MOL     -0.707496
     65 H26         1.5190   -3.5930    3.3980 hn        1 MOL      0.223653
     66 H27         1.4190   -1.3110    3.3180 h1        1 MOL      0.016023
     67 H28         3.3780   -0.3460    3.8030 hc        1 MOL      0.036565
     68 H29         4.4150   -1.5370    3.0120 hc        1 MOL      0.036565
     69 N6          1.2580   -1.1780    0.5850 n         1 MOL     -0.497649
     70 C23        -0.0310   -1.7920    0.7570 c3        1 MOL     -0.163040
     71 C24        -0.5000   -2.9240   -0.2320 c         1 MOL      0.339046
     72 O13         0.2720   -3.2140   -1.1710 o         1 MOL     -0.435134
     73 H30         1.4820   -0.8050   -0.3220 hn        1 MOL      0.361465
     74 H31        -0.8340   -1.0550    0.7220 h1        1 MOL      0.099000
     75 H32        -0.2130   -2.2140    1.7440 h1        1 MOL      0.099000
     76 N7         -1.6180   -3.4950    0.0280 n         1 MOL     -0.355294
     77 C25        -2.2030   -4.6900   -0.6700 c3        1 MOL     -0.203027
     78 C26        -2.7250   -4.2840   -2.0520 c         1 MOL      0.420181
     79 O14        -2.9850   -5.2300   -2.8820 o         1 MOL     -0.516592
     80 C27        -3.4100   -5.2410    0.2940 c3        1 MOL      0.255845
     81 C28        -3.0390   -5.6310    1.7430 c3        1 MOL     -0.247099
     82 C29        -4.2240   -6.3390    2.4420 c         1 MOL      0.685751
     83 N8         -5.3280   -5.7270    2.5870 n         1 MOL     -0.797792
     84 O15        -4.1420   -7.5080    2.7980 o         1 MOL     -0.580860
     85 H33        -2.1800   -3.0120    0.7220 hn        1 MOL      0.292885
     86 H34        -1.4220   -5.4460   -0.6050 h1        1 MOL      0.215598
     87 H35        -3.9430   -6.0280   -0.2400 hc        1 MOL     -0.036172
     88 H36        -4.1020   -4.4150    0.4620 hc        1 MOL     -0.036172
     89 H37        -2.8700   -4.7650    2.3710 hc        1 MOL      0.066960
     90 H38        -2.1710   -6.2910    1.7660 hc        1 MOL      0.066960
     91 H39        -5.3920   -4.7560    2.3470 hn        1 MOL      0.371168
     92 H40        -6.1090   -6.2970    2.8840 hn        1 MOL      0.371168
     93 N9         -2.9470   -3.0160   -2.3210 n         1 MOL     -0.221284
     94 C30        -3.3500   -2.5360   -3.6160 c3        1 MOL     -0.098113
     95 C31        -4.7680   -1.8980   -3.5320 c         1 MOL      0.528204
     96 O16        -5.5600   -2.1730   -4.4820 o         1 MOL     -0.580796
     97 C32        -2.3530   -1.7170   -4.4760 c3        1 MOL      0.015727
     98 C33        -1.2440   -2.6500   -4.9650 c3        1 MOL     -0.107654
     99 C34        -1.8600   -0.4780   -3.8610 c3        1 MOL     -0.107654
    100 H41        -2.6920   -2.3510   -1.5980 hn        1 MOL      0.272403
    101 H42        -3.5750   -3.3870   -4.2570 h1        1 MOL      0.107014
    102 H43        -2.8590   -1.2240   -5.3120 hc        1 MOL      0.048028
    103 H44        -1.6180   -3.3770   -5.6890 hc        1 MOL      0.036018
    104 H45        -0.4540   -2.2030   -5.5740 hc        1 MOL      0.036018
    105 H46        -0.7040   -3.1750   -4.1750 hc        1 MOL      0.036018
    106 H47        -1.1540   -0.5800   -3.0290 hc        1 MOL      0.036018
    107 H48        -1.2720    0.0440   -4.6140 hc        1 MOL      0.036018
    108 H49        -2.7510    0.0610   -3.5600 hc        1 MOL      0.036018
    109 N10        -5.1240   -1.1960   -2.5010 n         1 MOL     -0.261653
    110 C35        -6.4430   -0.5300   -2.3340 c3        1 MOL      0.071803
    111 C36        -6.2260    0.8100   -1.6830 c         1 MOL      0.479477
    112 O17        -6.5420    1.8190   -2.3500 o         1 MOL     -0.558709
    113 C37        -7.4450   -1.4830   -1.7140 c3        1 MOL     -0.189086
    114 C38        -6.9830   -2.2590   -0.5150 c         1 MOL      0.429274
    115 N11        -7.8140   -3.1360   -0.0260 n         1 MOL     -0.547166
    116 O18        -5.9150   -2.0260    0.0080 o         1 MOL     -0.502005
    117 H50        -4.4260   -1.0480   -1.7740 hn        1 MOL      0.143914
    118 H51        -6.8240   -0.3060   -3.3280 h1        1 MOL      0.063136
    119 H52        -7.5820   -2.2080   -2.5260 hc        1 MOL      0.091224
    120 H53        -8.3990   -1.0180   -1.4900 hc        1 MOL      0.091224
    121 H54        -8.6810   -3.3300   -0.5110 hn        1 MOL      0.297343
    122 H55        -7.5110   -3.7880    0.6820 hn        1 MOL      0.297343
    123 N12        -5.8650    0.9100   -0.4150 n         1 MOL     -0.327254
    124 C39        -6.0900    2.0610    0.4570 c3        1 MOL      0.086820
    125 C40        -4.7200    2.6670    0.7820 c         1 MOL      0.635170
    126 O19        -3.6690    2.0100    0.7070 o         1 MOL     -0.556704
    127 C41        -6.8450    1.5350    1.7010 c3        1 MOL     -0.072646
    128 C42        -8.0900    0.8840    1.2830 ca        1 MOL      0.008462
    129 C43        -8.3830   -0.3570    1.8270 ca        1 MOL     -0.132995
    130 C44        -9.0380    1.5290    0.4000 ca        1 MOL     -0.132995
    131 C45        -9.6050   -0.9470    1.5260 ca        1 MOL     -0.287871
    132 C46       -10.2770    0.9770    0.1700 ca        1 MOL     -0.287871
    133 C47       -10.5920   -0.3060    0.7400 ca        1 MOL      0.361240
    134 O20       -11.8230   -0.8670    0.5900 oh        1 MOL     -0.553215
    135 H56        -5.7150    0.0510    0.1030 hn        1 MOL      0.251983
    136 H57        -6.7060    2.8460    0.0370 h1        1 MOL      0.004619
    137 H58        -7.1490    2.3230    2.3990 hc        1 MOL      0.049006
    138 H59        -6.2180    0.8250    2.2380 hc        1 MOL      0.049006
    139 H60        -7.7570   -0.9430    2.4830 ha        1 MOL      0.139465
    140 H61        -8.8520    2.5360    0.0430 ha        1 MOL      0.139465
    141 H62        -9.7080   -1.9820    1.8270 ha        1 MOL      0.126944
    142 H63       -10.9430    1.5890   -0.4300 ha        1 MOL      0.126944
    143 H64       -12.4000   -0.4060   -0.0200 ho        1 MOL      0.394604
    144 N13        -4.8270    3.9840    1.1320 n         1 MOL     -0.749940
    145 C48        -3.7290    4.8250    1.7700 c3        1 MOL      0.250551
    146 C49        -2.4730    4.9800    0.9180 c         1 MOL      0.178347
    147 O21        -1.5370    5.6970    1.3040 o         1 MOL     -0.492647
    148 C50        -3.4120    4.2050    3.0990 c3        1 MOL     -0.000757
    149 C51        -3.1250    5.2440    4.2080 c3        1 MOL     -0.156174
    150 C52        -3.1210    4.6560    5.5700 c         1 MOL      0.656343
    151 O22        -2.2300    5.0530    6.3540 o         1 MOL     -0.722061
    152 O23        -4.0960    3.8880    5.8610 o         1 MOL     -0.722061
    153 H65        -5.7760    4.3290    1.1630 hn        1 MOL      0.367023
    154 H66        -4.2420    5.7940    1.8170 h1        1 MOL      0.042333
    155 H67        -2.6240    3.4490    3.0600 hc        1 MOL      0.049580
    156 H68        -4.3250    3.7490    3.4790 hc        1 MOL      0.049580
    157 H69        -3.7680    6.1140    4.1020 hc        1 MOL      0.017417
    158 H70        -2.1240    5.6490    4.0230 hc        1 MOL      0.017417
    159 N14        -2.3270    4.3310   -0.2600 n         1 MOL     -0.027310
    160 C53        -1.0920    4.4390   -1.1280 c3        1 MOL     -0.126823
    161 C54        -1.2160    5.3160   -2.3940 c         1 MOL      0.394215
    162 O24        -0.2730    5.4500   -3.1390 o         1 MOL     -0.489045
    163 C55        -0.8060    2.9970   -1.6730 c3        1 MOL      0.040878
    164 C56        -0.2590    1.9780   -0.5770 c3        1 MOL      0.158171
    165 C57         1.1910    2.3410   -0.1490 c         1 MOL      0.649501
    166 O25         2.1250    2.4690   -0.9350 o         1 MOL     -0.727905
    167 O26         1.5100    2.4910    1.0390 o         1 MOL     -0.727905
    168 H71        -3.0520    3.6650   -0.4720 hn        1 MOL      0.146925
    169 H72        -0.2610    4.7660   -0.4960 h1        1 MOL      0.141791
    170 H73        -0.0290    3.1200   -2.4310 hc        1 MOL     -0.023389
    171 H74        -1.6540    2.6010   -2.2240 hc        1 MOL     -0.023389
    172 H75        -0.1100    0.9740   -0.9730 hc        1 MOL     -0.048527
    173 H76        -0.9480    1.8880    0.2590 hc        1 MOL     -0.048527
    174 N15        -2.3940    5.9100   -2.6260 n         1 MOL     -0.191650
    175 C58        -2.6280    6.9970   -3.5000 c3        1 MOL     -0.021214
    176 H77        -3.5060    6.7900   -4.1110 h1        1 MOL      0.036038
    177 H78        -2.7980    7.9030   -2.9170 h1        1 MOL      0.036038
    178 H79        -1.7610    7.1370   -4.1460 h1        1 MOL      0.036038
    179 H80        -3.1980    5.6620   -2.0690 hn        1 MOL      0.168082
    180 Ca1         4.1170    2.4370    0.7890 Ca        1 MOL      1.759099
    181 O27         3.4630    3.0580    3.1200 oh        1 MOL     -0.900167
    182 H81         3.0270    3.8710    3.3740 ho        1 MOL      0.444690
    183 H82         3.5120    2.5550    3.9310 ho        1 MOL      0.444690
    184 O28         5.9300    1.2290    2.4850 oh        1 MOL     -0.900167
    185 H83         5.6130    1.1770    3.3890 ho        1 MOL      0.444690
    186 H84         6.7420    0.7170    2.4820 ho        1 MOL      0.444690
    187 O29         3.4690    5.0800    0.3360 oh        1 MOL     -0.900167
    188 H85         3.1480    5.2320   -0.5500 ho        1 MOL      0.444690
    189 H86         2.7310    5.2910    0.9000 ho        1 MOL      0.444690
@<TRIPOS>BOND
     1    1    2 1   
     2    1    4 1   
     3    1    5 1   
     4    1    6 1   
     5    2    3 2   
     6    2    7 1   
     7    7    8 1   
     8    7   15 1   
     9    8    9 1   
    10    8   11 1   
    11    8   16 1   
    12    9   10 2   
    13    9   19 1   
    14   11   12 1   
    15   11   17 1   
    16   11   18 1   
    17   12   13 1   
    18   12   14 1   
    19   19   20 1   
    20   19   27 1   
    21   20   21 1   
    22   20   23 1   
    23   20   28 1   
    24   21   22 2   
    25   21   38 1   
    26   23   24 1   
    27   23   25 1   
    28   23   29 1   
    29   24   26 1   
    30   24   30 1   
    31   24   31 1   
    32   25   32 1   
    33   25   33 1   
    34   25   34 1   
    35   26   35 1   
    36   26   36 1   
    37   26   37 1   
    38   38   39 1   
    39   38   46 1   
    40   39   40 1   
    41   39   42 1   
    42   39   47 1   
    43   40   41 2   
    44   40   50 1   
    45   42   43 1   
    46   42   48 1   
    47   42   49 1   
    48   43   44 1   
    49   43   45 1   
    50   50   51 1   
    51   50   54 1   
    52   51   52 1   
    53   51   55 1   
    54   51   56 1   
    55   52   53 2   
    56   52   57 1   
    57   57   58 1   
    58   57   65 1   
    59   58   59 1   
    60   58   61 1   
    61   58   66 1   
    62   59   60 2   
    63   59   69 1   
    64   61   62 1   
    65   61   67 1   
    66   61   68 1   
    67   62   63 1   
    68   62   64 1   
    69   69   70 1   
    70   69   73 1   
    71   70   71 1   
    72   70   74 1   
    73   70   75 1   
    74   71   72 2   
    75   71   76 1   
    76   76   77 1   
    77   76   85 1   
    78   77   78 1   
    79   77   80 1   
    80   77   86 1   
    81   78   79 2   
    82   78   93 1   
    83   80   81 1   
    84   80   87 1   
    85   80   88 1   
    86   81   82 1   
    87   81   89 1   
    88   81   90 1   
    89   82   83 1   
    90   82   84 2   
    91   83   91 1   
    92   83   92 1   
    93   93   94 1   
    94   93  100 1   
    95   94   95 1   
    96   94   97 1   
    97   94  101 1   
    98   95   96 2   
    99   95  109 1   
   100   97   98 1   
   101   97   99 1   
   102   97  102 1   
   103   98  103 1   
   104   98  104 1   
   105   98  105 1   
   106   99  106 1   
   107   99  107 1   
   108   99  108 1   
   109  109  110 1   
   110  109  117 1   
   111  110  111 1   
   112  110  113 1   
   113  110  118 1   
   114  111  112 2   
   115  111  123 1   
   116  113  114 1   
   117  113  119 1   
   118  113  120 1   
   119  114  115 1   
   120  114  116 2   
   121  115  121 1   
   122  115  122 1   
   123  123  124 1   
   124  123  135 1   
   125  124  125 1   
   126  124  127 1   
   127  124  136 1   
   128  125  126 2   
   129  125  144 1   
   130  127  128 1   
   131  127  137 1   
   132  127  138 1   
   133  128  129 ar  
   134  128  130 ar  
   135  129  131 ar  
   136  129  139 1   
   137  130  132 ar  
   138  130  140 1   
   139  131  133 ar  
   140  131  141 1   
   141  132  133 ar  
   142  132  142 1   
   143  133  134 1   
   144  134  143 1   
   145  144  145 1   
   146  144  153 1   
   147  145  146 1   
   148  145  148 1   
   149  145  154 1   
   150  146  147 2   
   151  146  159 1   
   152  148  149 1   
   153  148  155 1   
   154  148  156 1   
   155  149  150 1   
   156  149  157 1   
   157  149  158 1   
   158  150  151 1   
   159  150  152 1   
   160  159  160 1   
   161  159  168 1   
   162  160  161 1   
   163  160  163 1   
   164  160  169 1   
   165  161  162 2   
   166  161  174 1   
   167  163  164 1   
   168  163  170 1   
   169  163  171 1   
   170  164  165 1   
   171  164  172 1   
   172  164  173 1   
   173  165  166 1   
   174  165  167 1   
   175  174  175 1   
   176  174  179 1   
   177  175  176 1   
   178  175  177 1   
   179  175  178 1   
   180  181  182 1   
   181  181  183 1   
   182  184  185 1   
   183  184  186 1   
   184  187  188 1   
   185  187  189 1   
@<TRIPOS>SUBSTRUCTURE
     1 MOL         1 TEMP              0 ****  ****    0 ROOT
